/*---------------------------------------------------------------------------*\
| =========                 |                                                 |
| \\      /  F ield         | OpenFOAM: The Open Source CFD Toolbox           |
|  \\    /   O peration     | Version:  v1912                                 |
|   \\  /    A nd           | Website:  www.openfoam.com                      |
|    \\/     M anipulation  |                                                 |
\*---------------------------------------------------------------------------*/
Build  : _f3950763fe-20191219 OPENFOAM=1912
Arch   : "LSB;label=32;scalar=64"
Exec   : simpleFoam -parallel
Date   : Nov 13 2020
Time   : 00:58:11
Host   : 53bbc2ec95fa
PID    : 1474
I/O    : uncollated
Case   : /home/hao/OpenFOAM/hao-v1912/diffuser_2d
nProcs : 4
Hosts  :
(
    (53bbc2ec95fa 4)
)
Pstream initialized with:
    floatTransfer      : 0
    nProcsSimpleSum    : 0
    commsType          : nonBlocking
    polling iterations : 0
trapFpe: Floating point exception trapping enabled (FOAM_SIGFPE).
fileModificationChecking : Monitoring run-time modified files using timeStampMaster (fileModificationSkew 10)
allowSystemOperations : Allowing user-supplied system call operations

// * * * * * * * * * * * * * * * * * * * * * * * * * * * * * * * * * * * * * //
Create time

Create mesh for time = 0


SIMPLE: convergence criteria
    field p	 tolerance 1e-05
    field U	 tolerance 1e-05
    field nuTilda	 tolerance 1e-05

Reading field p

Reading field U

Reading/calculating face flux field phi

Selecting incompressible transport model Newtonian
Selecting turbulence model type laminar
Selecting laminar stress model Stokes
No MRF models present

No finite volume options present

Starting time loop

Time = 1

smoothSolver:  Solving for Ux, Initial residual = 1, Final residual = 0.0686955, No Iterations 2
smoothSolver:  Solving for Uy, Initial residual = 1, Final residual = 0.0785018, No Iterations 2
GAMG:  Solving for p, Initial residual = 1, Final residual = 0.0871773, No Iterations 8
time step continuity errors : sum local = 0.00867805, global = -0.000662517, cumulative = -0.000662517
ExecutionTime = 0.1 s  ClockTime = 0 s

Time = 2

smoothSolver:  Solving for Ux, Initial residual = 0.522332, Final residual = 0.0097208, No Iterations 4
smoothSolver:  Solving for Uy, Initial residual = 0.353723, Final residual = 0.00790043, No Iterations 4
GAMG:  Solving for p, Initial residual = 0.0532262, Final residual = 0.00425176, No Iterations 4
time step continuity errors : sum local = 0.0367769, global = -0.000278994, cumulative = -0.000941511
ExecutionTime = 0.13 s  ClockTime = 0 s

Time = 3

smoothSolver:  Solving for Ux, Initial residual = 0.384689, Final residual = 0.00692815, No Iterations 4
smoothSolver:  Solving for Uy, Initial residual = 0.508683, Final residual = 0.00907148, No Iterations 4
GAMG:  Solving for p, Initial residual = 0.0313555, Final residual = 0.00298218, No Iterations 4
time step continuity errors : sum local = 0.0398168, global = 0.00283493, cumulative = 0.00189342
ExecutionTime = 0.14 s  ClockTime = 0 s

Time = 4

smoothSolver:  Solving for Ux, Initial residual = 0.120098, Final residual = 0.00200592, No Iterations 4
smoothSolver:  Solving for Uy, Initial residual = 0.323309, Final residual = 0.00525801, No Iterations 4
GAMG:  Solving for p, Initial residual = 0.0696885, Final residual = 0.00378052, No Iterations 6
time step continuity errors : sum local = 0.0221831, global = 0.00125526, cumulative = 0.00314867
ExecutionTime = 0.16 s  ClockTime = 0 s

Time = 5

smoothSolver:  Solving for Ux, Initial residual = 0.116613, Final residual = 0.00201365, No Iterations 4
smoothSolver:  Solving for Uy, Initial residual = 0.110407, Final residual = 0.00190703, No Iterations 4
GAMG:  Solving for p, Initial residual = 0.166422, Final residual = 0.0102957, No Iterations 4
time step continuity errors : sum local = 0.0482879, global = 0.00138158, cumulative = 0.00453025
ExecutionTime = 0.18 s  ClockTime = 0 s

Time = 6

smoothSolver:  Solving for Ux, Initial residual = 0.18081, Final residual = 0.00316388, No Iterations 4
smoothSolver:  Solving for Uy, Initial residual = 0.201912, Final residual = 0.00409784, No Iterations 4
GAMG:  Solving for p, Initial residual = 0.0612889, Final residual = 0.00588134, No Iterations 3
time step continuity errors : sum local = 0.0433502, global = -0.000348661, cumulative = 0.00418159
ExecutionTime = 0.2 s  ClockTime = 0 s

Time = 7

smoothSolver:  Solving for Ux, Initial residual = 0.114814, Final residual = 0.00212882, No Iterations 4
smoothSolver:  Solving for Uy, Initial residual = 0.657591, Final residual = 0.0121822, No Iterations 4
GAMG:  Solving for p, Initial residual = 0.0931148, Final residual = 0.00719242, No Iterations 4
time step continuity errors : sum local = 0.0354371, global = -0.000545528, cumulative = 0.00363606
ExecutionTime = 0.23 s  ClockTime = 1 s

Time = 8

smoothSolver:  Solving for Ux, Initial residual = 0.0361114, Final residual = 0.000563013, No Iterations 4
smoothSolver:  Solving for Uy, Initial residual = 0.567336, Final residual = 0.0105532, No Iterations 4
GAMG:  Solving for p, Initial residual = 0.804939, Final residual = 0.045461, No Iterations 4
time step continuity errors : sum local = 0.0350186, global = -0.000884614, cumulative = 0.00275145
ExecutionTime = 0.26 s  ClockTime = 1 s

Time = 9

smoothSolver:  Solving for Ux, Initial residual = 0.0716327, Final residual = 0.00116815, No Iterations 4
smoothSolver:  Solving for Uy, Initial residual = 0.471586, Final residual = 0.00859488, No Iterations 4
GAMG:  Solving for p, Initial residual = 0.118098, Final residual = 0.00925822, No Iterations 3
time step continuity errors : sum local = 0.0263076, global = -0.0009946, cumulative = 0.00175685
ExecutionTime = 0.28 s  ClockTime = 1 s

Time = 10

smoothSolver:  Solving for Ux, Initial residual = 0.0627248, Final residual = 0.00109062, No Iterations 4
smoothSolver:  Solving for Uy, Initial residual = 0.358651, Final residual = 0.00627341, No Iterations 4
GAMG:  Solving for p, Initial residual = 0.115389, Final residual = 0.00446474, No Iterations 4
time step continuity errors : sum local = 0.013251, global = 0.00066572, cumulative = 0.00242257
ExecutionTime = 0.32 s  ClockTime = 1 s

Time = 11

smoothSolver:  Solving for Ux, Initial residual = 0.0412526, Final residual = 0.00075961, No Iterations 4
smoothSolver:  Solving for Uy, Initial residual = 0.12934, Final residual = 0.00254012, No Iterations 4
GAMG:  Solving for p, Initial residual = 0.198501, Final residual = 0.00872901, No Iterations 4
time step continuity errors : sum local = 0.0171869, global = -9.92753e-06, cumulative = 0.00241264
ExecutionTime = 0.33 s  ClockTime = 1 s

Time = 12

smoothSolver:  Solving for Ux, Initial residual = 0.0199647, Final residual = 0.000365863, No Iterations 4
smoothSolver:  Solving for Uy, Initial residual = 0.0870517, Final residual = 0.00190411, No Iterations 4
GAMG:  Solving for p, Initial residual = 0.259217, Final residual = 0.0220693, No Iterations 3
time step continuity errors : sum local = 0.0199334, global = 0.000284745, cumulative = 0.00269739
ExecutionTime = 0.34 s  ClockTime = 1 s

Time = 13

smoothSolver:  Solving for Ux, Initial residual = 0.0367085, Final residual = 0.000656966, No Iterations 4
smoothSolver:  Solving for Uy, Initial residual = 0.192277, Final residual = 0.00355823, No Iterations 4
GAMG:  Solving for p, Initial residual = 0.0937442, Final residual = 0.00597855, No Iterations 3
time step continuity errors : sum local = 0.0139014, global = -0.000127743, cumulative = 0.00256964
ExecutionTime = 0.35 s  ClockTime = 1 s

Time = 14

smoothSolver:  Solving for Ux, Initial residual = 0.0456828, Final residual = 0.000874499, No Iterations 4
smoothSolver:  Solving for Uy, Initial residual = 0.154982, Final residual = 0.00296561, No Iterations 4
GAMG:  Solving for p, Initial residual = 0.0883211, Final residual = 0.00866975, No Iterations 3
time step continuity errors : sum local = 0.0206867, global = 0.000278933, cumulative = 0.00284858
ExecutionTime = 0.36 s  ClockTime = 1 s

Time = 15

smoothSolver:  Solving for Ux, Initial residual = 0.022843, Final residual = 0.000448668, No Iterations 4
smoothSolver:  Solving for Uy, Initial residual = 0.0776421, Final residual = 0.00172264, No Iterations 4
GAMG:  Solving for p, Initial residual = 0.157888, Final residual = 0.0112476, No Iterations 3
time step continuity errors : sum local = 0.0116098, global = 0.000384919, cumulative = 0.0032335
ExecutionTime = 0.37 s  ClockTime = 1 s

Time = 16

smoothSolver:  Solving for Ux, Initial residual = 0.0232899, Final residual = 0.000355456, No Iterations 4
smoothSolver:  Solving for Uy, Initial residual = 0.100452, Final residual = 0.0018783, No Iterations 4
GAMG:  Solving for p, Initial residual = 0.165322, Final residual = 0.0083857, No Iterations 3
time step continuity errors : sum local = 0.00799421, global = -0.000495492, cumulative = 0.002738
ExecutionTime = 0.39 s  ClockTime = 1 s

Time = 17

smoothSolver:  Solving for Ux, Initial residual = 0.0327069, Final residual = 0.000564961, No Iterations 4
smoothSolver:  Solving for Uy, Initial residual = 0.0745584, Final residual = 0.0013651, No Iterations 4
GAMG:  Solving for p, Initial residual = 0.100747, Final residual = 0.00582725, No Iterations 3
time step continuity errors : sum local = 0.00764544, global = 0.000185928, cumulative = 0.00292393
ExecutionTime = 0.4 s  ClockTime = 1 s

Time = 18

smoothSolver:  Solving for Ux, Initial residual = 0.0198154, Final residual = 0.000339057, No Iterations 4
smoothSolver:  Solving for Uy, Initial residual = 0.0416339, Final residual = 0.000915124, No Iterations 4
GAMG:  Solving for p, Initial residual = 0.172649, Final residual = 0.0111774, No Iterations 3
time step continuity errors : sum local = 0.00724011, global = -1.49399e-05, cumulative = 0.00290899
ExecutionTime = 0.41 s  ClockTime = 1 s

Time = 19

smoothSolver:  Solving for Ux, Initial residual = 0.0118834, Final residual = 0.000219121, No Iterations 4
smoothSolver:  Solving for Uy, Initial residual = 0.0372115, Final residual = 0.000792814, No Iterations 4
GAMG:  Solving for p, Initial residual = 0.162519, Final residual = 0.00726126, No Iterations 3
time step continuity errors : sum local = 0.00534225, global = -2.27943e-05, cumulative = 0.0028862
ExecutionTime = 0.43 s  ClockTime = 1 s

Time = 20

smoothSolver:  Solving for Ux, Initial residual = 0.0177651, Final residual = 0.000350616, No Iterations 4
smoothSolver:  Solving for Uy, Initial residual = 0.0434384, Final residual = 0.000873301, No Iterations 4
GAMG:  Solving for p, Initial residual = 0.0770526, Final residual = 0.004404, No Iterations 3
time step continuity errors : sum local = 0.00544677, global = -0.000176631, cumulative = 0.00270957
ExecutionTime = 0.46 s  ClockTime = 1 s

Time = 21

smoothSolver:  Solving for Ux, Initial residual = 0.0138594, Final residual = 0.000281945, No Iterations 4
smoothSolver:  Solving for Uy, Initial residual = 0.0406168, Final residual = 0.000821788, No Iterations 4
GAMG:  Solving for p, Initial residual = 0.0750643, Final residual = 0.00424281, No Iterations 3
time step continuity errors : sum local = 0.00427994, global = -7.57947e-05, cumulative = 0.00263377
ExecutionTime = 0.48 s  ClockTime = 1 s

Time = 22

smoothSolver:  Solving for Ux, Initial residual = 0.00890934, Final residual = 0.000142672, No Iterations 4
smoothSolver:  Solving for Uy, Initial residual = 0.0298868, Final residual = 0.000638182, No Iterations 4
GAMG:  Solving for p, Initial residual = 0.192683, Final residual = 0.00840084, No Iterations 3
time step continuity errors : sum local = 0.00372293, global = -4.85435e-05, cumulative = 0.00258523
ExecutionTime = 0.49 s  ClockTime = 1 s

Time = 23

smoothSolver:  Solving for Ux, Initial residual = 0.00956245, Final residual = 0.000135314, No Iterations 4
smoothSolver:  Solving for Uy, Initial residual = 0.0272257, Final residual = 0.000537107, No Iterations 4
GAMG:  Solving for p, Initial residual = 0.34444, Final residual = 0.0204937, No Iterations 3
time step continuity errors : sum local = 0.00415438, global = 8.60456e-05, cumulative = 0.00267127
ExecutionTime = 0.5 s  ClockTime = 1 s

Time = 24

smoothSolver:  Solving for Ux, Initial residual = 0.00968955, Final residual = 0.000151559, No Iterations 4
smoothSolver:  Solving for Uy, Initial residual = 0.0281016, Final residual = 0.000518131, No Iterations 4
GAMG:  Solving for p, Initial residual = 0.237328, Final residual = 0.0130195, No Iterations 3
time step continuity errors : sum local = 0.00290044, global = 3.43397e-05, cumulative = 0.00270561
ExecutionTime = 0.51 s  ClockTime = 1 s

Time = 25

smoothSolver:  Solving for Ux, Initial residual = 0.00816891, Final residual = 0.0001409, No Iterations 4
smoothSolver:  Solving for Uy, Initial residual = 0.0204268, Final residual = 0.000394066, No Iterations 4
GAMG:  Solving for p, Initial residual = 0.279486, Final residual = 0.0145535, No Iterations 3
time step continuity errors : sum local = 0.00289063, global = 0.000114967, cumulative = 0.00282058
ExecutionTime = 0.53 s  ClockTime = 1 s

Time = 26

smoothSolver:  Solving for Ux, Initial residual = 0.00689383, Final residual = 0.000132514, No Iterations 4
smoothSolver:  Solving for Uy, Initial residual = 0.015184, Final residual = 0.000341358, No Iterations 4
GAMG:  Solving for p, Initial residual = 0.110942, Final residual = 0.00549556, No Iterations 3
time step continuity errors : sum local = 0.00242628, global = 0.000114349, cumulative = 0.00293493
ExecutionTime = 0.54 s  ClockTime = 1 s

Time = 27

smoothSolver:  Solving for Ux, Initial residual = 0.00639811, Final residual = 0.000130007, No Iterations 4
smoothSolver:  Solving for Uy, Initial residual = 0.0167506, Final residual = 0.000375934, No Iterations 4
GAMG:  Solving for p, Initial residual = 0.0670626, Final residual = 0.0036539, No Iterations 3
time step continuity errors : sum local = 0.00204466, global = 2.05753e-05, cumulative = 0.00295551
ExecutionTime = 0.57 s  ClockTime = 1 s

Time = 28

smoothSolver:  Solving for Ux, Initial residual = 0.00656883, Final residual = 0.000126457, No Iterations 4
smoothSolver:  Solving for Uy, Initial residual = 0.0153399, Final residual = 0.000311063, No Iterations 4
GAMG:  Solving for p, Initial residual = 0.0634701, Final residual = 0.00359242, No Iterations 3
time step continuity errors : sum local = 0.00196828, global = -6.67744e-05, cumulative = 0.00288873
ExecutionTime = 0.59 s  ClockTime = 1 s

Time = 29

smoothSolver:  Solving for Ux, Initial residual = 0.00602343, Final residual = 0.000101728, No Iterations 4
smoothSolver:  Solving for Uy, Initial residual = 0.0120498, Final residual = 0.000222528, No Iterations 4
GAMG:  Solving for p, Initial residual = 0.0732906, Final residual = 0.00342729, No Iterations 3
time step continuity errors : sum local = 0.00151956, global = -7.07237e-05, cumulative = 0.00281801
ExecutionTime = 0.6 s  ClockTime = 1 s

Time = 30

smoothSolver:  Solving for Ux, Initial residual = 0.00544912, Final residual = 8.46718e-05, No Iterations 4
smoothSolver:  Solving for Uy, Initial residual = 0.0110761, Final residual = 0.000202902, No Iterations 4
GAMG:  Solving for p, Initial residual = 0.0860428, Final residual = 0.00394988, No Iterations 3
time step continuity errors : sum local = 0.00126787, global = -5.25594e-05, cumulative = 0.00276545
ExecutionTime = 0.64 s  ClockTime = 1 s

Time = 31

smoothSolver:  Solving for Ux, Initial residual = 0.00554941, Final residual = 9.03642e-05, No Iterations 4
smoothSolver:  Solving for Uy, Initial residual = 0.0106478, Final residual = 0.000192176, No Iterations 4
GAMG:  Solving for p, Initial residual = 0.0900727, Final residual = 0.00558877, No Iterations 3
time step continuity errors : sum local = 0.00148083, global = 2.58145e-05, cumulative = 0.00279126
ExecutionTime = 0.65 s  ClockTime = 1 s

Time = 32

smoothSolver:  Solving for Ux, Initial residual = 0.00542061, Final residual = 9.19046e-05, No Iterations 4
smoothSolver:  Solving for Uy, Initial residual = 0.00903211, Final residual = 0.000162943, No Iterations 4
GAMG:  Solving for p, Initial residual = 0.0743777, Final residual = 0.00445298, No Iterations 3
time step continuity errors : sum local = 0.00127903, global = 6.2681e-05, cumulative = 0.00285394
ExecutionTime = 0.67 s  ClockTime = 1 s

Time = 33

smoothSolver:  Solving for Ux, Initial residual = 0.00496394, Final residual = 8.84299e-05, No Iterations 4
smoothSolver:  Solving for Uy, Initial residual = 0.00725658, Final residual = 0.000150626, No Iterations 4
GAMG:  Solving for p, Initial residual = 0.0542525, Final residual = 0.00270606, No Iterations 3
time step continuity errors : sum local = 0.000962771, global = 5.54001e-05, cumulative = 0.00290934
ExecutionTime = 0.68 s  ClockTime = 1 s

Time = 34

smoothSolver:  Solving for Ux, Initial residual = 0.00464923, Final residual = 8.6657e-05, No Iterations 4
smoothSolver:  Solving for Uy, Initial residual = 0.00710393, Final residual = 0.000147162, No Iterations 4
GAMG:  Solving for p, Initial residual = 0.0405535, Final residual = 0.00236797, No Iterations 3
time step continuity errors : sum local = 0.000983894, global = 5.59206e-06, cumulative = 0.00291494
ExecutionTime = 0.7 s  ClockTime = 1 s

Time = 35

smoothSolver:  Solving for Ux, Initial residual = 0.0045543, Final residual = 8.46195e-05, No Iterations 4
smoothSolver:  Solving for Uy, Initial residual = 0.00747981, Final residual = 0.000133766, No Iterations 4
GAMG:  Solving for p, Initial residual = 0.0346577, Final residual = 0.00238804, No Iterations 3
time step continuity errors : sum local = 0.00102984, global = -3.6328e-05, cumulative = 0.00287861
ExecutionTime = 0.71 s  ClockTime = 1 s

Time = 36

smoothSolver:  Solving for Ux, Initial residual = 0.00432606, Final residual = 7.60499e-05, No Iterations 4
smoothSolver:  Solving for Uy, Initial residual = 0.00699769, Final residual = 0.000113008, No Iterations 4
GAMG:  Solving for p, Initial residual = 0.0343281, Final residual = 0.00213105, No Iterations 3
time step continuity errors : sum local = 0.000868672, global = -4.83047e-05, cumulative = 0.0028303
ExecutionTime = 0.73 s  ClockTime = 1 s

Time = 37

smoothSolver:  Solving for Ux, Initial residual = 0.00425997, Final residual = 7.34113e-05, No Iterations 4
smoothSolver:  Solving for Uy, Initial residual = 0.00645231, Final residual = 0.000109527, No Iterations 4
GAMG:  Solving for p, Initial residual = 0.0344805, Final residual = 0.0021531, No Iterations 3
time step continuity errors : sum local = 0.000793928, global = -3.79099e-05, cumulative = 0.00279239
ExecutionTime = 0.74 s  ClockTime = 1 s

Time = 38

smoothSolver:  Solving for Ux, Initial residual = 0.00429019, Final residual = 7.37982e-05, No Iterations 4
smoothSolver:  Solving for Uy, Initial residual = 0.00616864, Final residual = 0.000109519, No Iterations 4
GAMG:  Solving for p, Initial residual = 0.0317847, Final residual = 0.0030909, No Iterations 2
time step continuity errors : sum local = 0.00106306, global = 4.98151e-05, cumulative = 0.00284221
ExecutionTime = 0.76 s  ClockTime = 1 s

Time = 39

smoothSolver:  Solving for Ux, Initial residual = 0.00420773, Final residual = 7.23948e-05, No Iterations 4
smoothSolver:  Solving for Uy, Initial residual = 0.00579441, Final residual = 0.000103522, No Iterations 4
GAMG:  Solving for p, Initial residual = 0.0291068, Final residual = 0.00194933, No Iterations 3
time step continuity errors : sum local = 0.000670813, global = 2.41178e-05, cumulative = 0.00286633
ExecutionTime = 0.78 s  ClockTime = 1 s

Time = 40

smoothSolver:  Solving for Ux, Initial residual = 0.00407251, Final residual = 7.16913e-05, No Iterations 4
smoothSolver:  Solving for Uy, Initial residual = 0.00505989, Final residual = 8.34935e-05, No Iterations 4
GAMG:  Solving for p, Initial residual = 0.026982, Final residual = 0.00196893, No Iterations 3
time step continuity errors : sum local = 0.000714267, global = 3.335e-05, cumulative = 0.00289968
ExecutionTime = 0.83 s  ClockTime = 1 s

Time = 41

smoothSolver:  Solving for Ux, Initial residual = 0.00396195, Final residual = 7.18081e-05, No Iterations 4
smoothSolver:  Solving for Uy, Initial residual = 0.00506614, Final residual = 8.16418e-05, No Iterations 4
GAMG:  Solving for p, Initial residual = 0.0230923, Final residual = 0.00125534, No Iterations 3
time step continuity errors : sum local = 0.000481207, global = 1.74781e-05, cumulative = 0.00291715
ExecutionTime = 0.85 s  ClockTime = 1 s

Time = 42

smoothSolver:  Solving for Ux, Initial residual = 0.00388493, Final residual = 7.17699e-05, No Iterations 4
smoothSolver:  Solving for Uy, Initial residual = 0.00547723, Final residual = 8.77184e-05, No Iterations 4
GAMG:  Solving for p, Initial residual = 0.0201275, Final residual = 0.00112389, No Iterations 3
time step continuity errors : sum local = 0.000443103, global = -1.35027e-05, cumulative = 0.00290365
ExecutionTime = 0.86 s  ClockTime = 1 s

Time = 43

smoothSolver:  Solving for Ux, Initial residual = 0.00385557, Final residual = 7.15767e-05, No Iterations 4
smoothSolver:  Solving for Uy, Initial residual = 0.00539915, Final residual = 8.91447e-05, No Iterations 4
GAMG:  Solving for p, Initial residual = 0.0192408, Final residual = 0.00139873, No Iterations 3
time step continuity errors : sum local = 0.000551109, global = -2.668e-05, cumulative = 0.00287697
ExecutionTime = 0.88 s  ClockTime = 1 s

Time = 44

smoothSolver:  Solving for Ux, Initial residual = 0.00384393, Final residual = 7.13039e-05, No Iterations 4
smoothSolver:  Solving for Uy, Initial residual = 0.00503862, Final residual = 8.6731e-05, No Iterations 4
GAMG:  Solving for p, Initial residual = 0.0186295, Final residual = 0.00133645, No Iterations 3
time step continuity errors : sum local = 0.000514272, global = -2.24498e-05, cumulative = 0.00285452
ExecutionTime = 0.9 s  ClockTime = 2 s

Time = 45

smoothSolver:  Solving for Ux, Initial residual = 0.00384546, Final residual = 7.1003e-05, No Iterations 4
smoothSolver:  Solving for Uy, Initial residual = 0.00497719, Final residual = 8.83441e-05, No Iterations 4
GAMG:  Solving for p, Initial residual = 0.0182444, Final residual = 0.00158209, No Iterations 2
time step continuity errors : sum local = 0.000594714, global = 3.68997e-05, cumulative = 0.00289142
ExecutionTime = 0.91 s  ClockTime = 2 s

Time = 46

smoothSolver:  Solving for Ux, Initial residual = 0.00381568, Final residual = 7.00411e-05, No Iterations 4
smoothSolver:  Solving for Uy, Initial residual = 0.00509018, Final residual = 9.15151e-05, No Iterations 4
GAMG:  Solving for p, Initial residual = 0.0179626, Final residual = 0.00168861, No Iterations 2
time step continuity errors : sum local = 0.000632951, global = 7.6153e-05, cumulative = 0.00296757
ExecutionTime = 0.92 s  ClockTime = 2 s

Time = 47

smoothSolver:  Solving for Ux, Initial residual = 0.00380228, Final residual = 6.98309e-05, No Iterations 4
smoothSolver:  Solving for Uy, Initial residual = 0.00509373, Final residual = 9.1771e-05, No Iterations 4
GAMG:  Solving for p, Initial residual = 0.0176427, Final residual = 0.000883589, No Iterations 3
time step continuity errors : sum local = 0.000333134, global = 2.64963e-05, cumulative = 0.00299407
ExecutionTime = 0.95 s  ClockTime = 2 s

Time = 48

smoothSolver:  Solving for Ux, Initial residual = 0.00379617, Final residual = 7.0895e-05, No Iterations 4
smoothSolver:  Solving for Uy, Initial residual = 0.00515745, Final residual = 9.26385e-05, No Iterations 4
GAMG:  Solving for p, Initial residual = 0.0167264, Final residual = 0.00152634, No Iterations 2
time step continuity errors : sum local = 0.000588035, global = 8.99525e-05, cumulative = 0.00308402
ExecutionTime = 0.98 s  ClockTime = 2 s

Time = 49

smoothSolver:  Solving for Ux, Initial residual = 0.00378011, Final residual = 7.13302e-05, No Iterations 4
smoothSolver:  Solving for Uy, Initial residual = 0.00532503, Final residual = 9.79868e-05, No Iterations 4
GAMG:  Solving for p, Initial residual = 0.0158371, Final residual = 0.00155329, No Iterations 2
time step continuity errors : sum local = 0.000604673, global = 7.6645e-05, cumulative = 0.00316067
ExecutionTime = 1.01 s  ClockTime = 2 s

Time = 50

smoothSolver:  Solving for Ux, Initial residual = 0.00376952, Final residual = 7.20648e-05, No Iterations 4
smoothSolver:  Solving for Uy, Initial residual = 0.00543697, Final residual = 0.000102167, No Iterations 4
GAMG:  Solving for p, Initial residual = 0.0158185, Final residual = 0.00150054, No Iterations 2
time step continuity errors : sum local = 0.000591216, global = 7.22737e-05, cumulative = 0.00323294
ExecutionTime = 1.07 s  ClockTime = 2 s

Time = 51

smoothSolver:  Solving for Ux, Initial residual = 0.00378941, Final residual = 7.32183e-05, No Iterations 4
smoothSolver:  Solving for Uy, Initial residual = 0.00558272, Final residual = 0.000106843, No Iterations 4
GAMG:  Solving for p, Initial residual = 0.0162714, Final residual = 0.00140521, No Iterations 2
time step continuity errors : sum local = 0.000558089, global = 6.54407e-05, cumulative = 0.00329838
ExecutionTime = 1.11 s  ClockTime = 2 s

Time = 52

smoothSolver:  Solving for Ux, Initial residual = 0.00382016, Final residual = 7.45373e-05, No Iterations 4
smoothSolver:  Solving for Uy, Initial residual = 0.0058384, Final residual = 0.000113751, No Iterations 4
GAMG:  Solving for p, Initial residual = 0.01691, Final residual = 0.00139059, No Iterations 2
time step continuity errors : sum local = 0.000555375, global = 5.91585e-05, cumulative = 0.00335754
ExecutionTime = 1.14 s  ClockTime = 2 s

Time = 53

smoothSolver:  Solving for Ux, Initial residual = 0.00384905, Final residual = 7.6066e-05, No Iterations 4
smoothSolver:  Solving for Uy, Initial residual = 0.00615842, Final residual = 0.000122458, No Iterations 4
GAMG:  Solving for p, Initial residual = 0.0175797, Final residual = 0.00140486, No Iterations 2
time step continuity errors : sum local = 0.000563451, global = 5.66901e-05, cumulative = 0.00341423
ExecutionTime = 1.17 s  ClockTime = 2 s

Time = 54

smoothSolver:  Solving for Ux, Initial residual = 0.00387313, Final residual = 7.77038e-05, No Iterations 4
smoothSolver:  Solving for Uy, Initial residual = 0.00647097, Final residual = 0.000131621, No Iterations 4
GAMG:  Solving for p, Initial residual = 0.0181913, Final residual = 0.00138388, No Iterations 2
time step continuity errors : sum local = 0.000557168, global = 6.50219e-05, cumulative = 0.00347925
ExecutionTime = 1.21 s  ClockTime = 2 s

Time = 55

smoothSolver:  Solving for Ux, Initial residual = 0.00390843, Final residual = 7.97997e-05, No Iterations 4
smoothSolver:  Solving for Uy, Initial residual = 0.0067944, Final residual = 0.000140591, No Iterations 4
GAMG:  Solving for p, Initial residual = 0.0189338, Final residual = 0.00140776, No Iterations 2
time step continuity errors : sum local = 0.000567531, global = 7.32252e-05, cumulative = 0.00355248
ExecutionTime = 1.22 s  ClockTime = 2 s

Time = 56

smoothSolver:  Solving for Ux, Initial residual = 0.0039546, Final residual = 8.22835e-05, No Iterations 4
smoothSolver:  Solving for Uy, Initial residual = 0.00716383, Final residual = 0.00014881, No Iterations 4
GAMG:  Solving for p, Initial residual = 0.0198464, Final residual = 0.00147597, No Iterations 2
time step continuity errors : sum local = 0.000596922, global = 8.44816e-05, cumulative = 0.00363696
ExecutionTime = 1.25 s  ClockTime = 2 s

Time = 57

smoothSolver:  Solving for Ux, Initial residual = 0.00400877, Final residual = 8.49655e-05, No Iterations 4
smoothSolver:  Solving for Uy, Initial residual = 0.00757084, Final residual = 0.0001554, No Iterations 4
GAMG:  Solving for p, Initial residual = 0.0210855, Final residual = 0.00159191, No Iterations 2
time step continuity errors : sum local = 0.000645252, global = 8.91662e-05, cumulative = 0.00372613
ExecutionTime = 1.28 s  ClockTime = 2 s

Time = 58

smoothSolver:  Solving for Ux, Initial residual = 0.0040668, Final residual = 8.78688e-05, No Iterations 4
smoothSolver:  Solving for Uy, Initial residual = 0.00801834, Final residual = 0.000162806, No Iterations 4
GAMG:  Solving for p, Initial residual = 0.0225438, Final residual = 0.00174113, No Iterations 2
time step continuity errors : sum local = 0.000710083, global = 8.5946e-05, cumulative = 0.00381207
ExecutionTime = 1.31 s  ClockTime = 2 s

Time = 59

smoothSolver:  Solving for Ux, Initial residual = 0.00412352, Final residual = 9.09415e-05, No Iterations 4
smoothSolver:  Solving for Uy, Initial residual = 0.00852012, Final residual = 0.00017312, No Iterations 4
GAMG:  Solving for p, Initial residual = 0.0238812, Final residual = 0.00182567, No Iterations 2
time step continuity errors : sum local = 0.000750233, global = 7.74798e-05, cumulative = 0.00388955
ExecutionTime = 1.33 s  ClockTime = 2 s

Time = 60

smoothSolver:  Solving for Ux, Initial residual = 0.00418506, Final residual = 9.42424e-05, No Iterations 4
smoothSolver:  Solving for Uy, Initial residual = 0.00907538, Final residual = 0.000185511, No Iterations 4
GAMG:  Solving for p, Initial residual = 0.0251646, Final residual = 0.00183048, No Iterations 2
time step continuity errors : sum local = 0.000756801, global = 6.99067e-05, cumulative = 0.00395946
ExecutionTime = 1.39 s  ClockTime = 2 s

Time = 61

smoothSolver:  Solving for Ux, Initial residual = 0.00425157, Final residual = 9.76218e-05, No Iterations 4
smoothSolver:  Solving for Uy, Initial residual = 0.0096825, Final residual = 0.000199032, No Iterations 4
GAMG:  Solving for p, Initial residual = 0.0267546, Final residual = 0.00180949, No Iterations 2
time step continuity errors : sum local = 0.000745218, global = 6.52997e-05, cumulative = 0.00402476
ExecutionTime = 1.43 s  ClockTime = 2 s

Time = 62

smoothSolver:  Solving for Ux, Initial residual = 0.00432397, Final residual = 0.000100939, No Iterations 4
smoothSolver:  Solving for Uy, Initial residual = 0.0103268, Final residual = 0.000211798, No Iterations 4
GAMG:  Solving for p, Initial residual = 0.0285837, Final residual = 0.00181664, No Iterations 2
time step continuity errors : sum local = 0.000742705, global = 7.12678e-05, cumulative = 0.00409603
ExecutionTime = 1.45 s  ClockTime = 2 s

Time = 63

smoothSolver:  Solving for Ux, Initial residual = 0.00440315, Final residual = 0.000104425, No Iterations 4
smoothSolver:  Solving for Uy, Initial residual = 0.0110016, Final residual = 0.000222927, No Iterations 4
GAMG:  Solving for p, Initial residual = 0.0306123, Final residual = 0.00187578, No Iterations 2
time step continuity errors : sum local = 0.000762601, global = 8.59592e-05, cumulative = 0.00418199
ExecutionTime = 1.48 s  ClockTime = 2 s

Time = 64

smoothSolver:  Solving for Ux, Initial residual = 0.00448497, Final residual = 0.000108381, No Iterations 4
smoothSolver:  Solving for Uy, Initial residual = 0.0117019, Final residual = 0.000232721, No Iterations 4
GAMG:  Solving for p, Initial residual = 0.0329371, Final residual = 0.00198328, No Iterations 2
time step continuity errors : sum local = 0.000803171, global = 0.000104638, cumulative = 0.00428662
ExecutionTime = 1.51 s  ClockTime = 2 s

Time = 65

smoothSolver:  Solving for Ux, Initial residual = 0.00456646, Final residual = 0.000112938, No Iterations 4
smoothSolver:  Solving for Uy, Initial residual = 0.0124476, Final residual = 0.00024286, No Iterations 4
GAMG:  Solving for p, Initial residual = 0.0353682, Final residual = 0.0020986, No Iterations 2
time step continuity errors : sum local = 0.000847553, global = 0.000121622, cumulative = 0.00440825
ExecutionTime = 1.54 s  ClockTime = 2 s

Time = 66

smoothSolver:  Solving for Ux, Initial residual = 0.00465178, Final residual = 0.000117647, No Iterations 4
smoothSolver:  Solving for Uy, Initial residual = 0.0132282, Final residual = 0.000254896, No Iterations 4
GAMG:  Solving for p, Initial residual = 0.0381331, Final residual = 0.00222105, No Iterations 2
time step continuity errors : sum local = 0.000888945, global = 0.000128953, cumulative = 0.0045372
ExecutionTime = 1.57 s  ClockTime = 2 s

Time = 67

smoothSolver:  Solving for Ux, Initial residual = 0.00473887, Final residual = 0.000122331, No Iterations 4
smoothSolver:  Solving for Uy, Initial residual = 0.0140207, Final residual = 0.000269351, No Iterations 4
GAMG:  Solving for p, Initial residual = 0.0410848, Final residual = 0.00236171, No Iterations 2
time step continuity errors : sum local = 0.000936636, global = 0.000136786, cumulative = 0.00467398
ExecutionTime = 1.61 s  ClockTime = 2 s

Time = 68

smoothSolver:  Solving for Ux, Initial residual = 0.00482432, Final residual = 0.000126579, No Iterations 4
smoothSolver:  Solving for Uy, Initial residual = 0.014806, Final residual = 0.000286522, No Iterations 4
GAMG:  Solving for p, Initial residual = 0.0441563, Final residual = 0.0025478, No Iterations 2
time step continuity errors : sum local = 0.00100369, global = 0.000118662, cumulative = 0.00479265
ExecutionTime = 1.65 s  ClockTime = 2 s

Time = 69

smoothSolver:  Solving for Ux, Initial residual = 0.00490571, Final residual = 0.000130734, No Iterations 4
smoothSolver:  Solving for Uy, Initial residual = 0.0155742, Final residual = 0.000304611, No Iterations 4
GAMG:  Solving for p, Initial residual = 0.0471429, Final residual = 0.00277984, No Iterations 2
time step continuity errors : sum local = 0.00109377, global = 9.71159e-05, cumulative = 0.00488976
ExecutionTime = 1.69 s  ClockTime = 2 s

Time = 70

smoothSolver:  Solving for Ux, Initial residual = 0.00498942, Final residual = 0.000134506, No Iterations 4
smoothSolver:  Solving for Uy, Initial residual = 0.0163336, Final residual = 0.000323027, No Iterations 4
GAMG:  Solving for p, Initial residual = 0.0500838, Final residual = 0.00303511, No Iterations 2
time step continuity errors : sum local = 0.00119432, global = 7.07791e-05, cumulative = 0.00496054
ExecutionTime = 1.76 s  ClockTime = 2 s

Time = 71

smoothSolver:  Solving for Ux, Initial residual = 0.00506869, Final residual = 0.000137813, No Iterations 4
smoothSolver:  Solving for Uy, Initial residual = 0.017088, Final residual = 0.000341101, No Iterations 4
GAMG:  Solving for p, Initial residual = 0.0530978, Final residual = 0.00330888, No Iterations 2
time step continuity errors : sum local = 0.00130079, global = 4.69725e-05, cumulative = 0.00500751
ExecutionTime = 1.78 s  ClockTime = 2 s

Time = 72

smoothSolver:  Solving for Ux, Initial residual = 0.00514243, Final residual = 0.000140715, No Iterations 4
smoothSolver:  Solving for Uy, Initial residual = 0.0178348, Final residual = 0.000358654, No Iterations 4
GAMG:  Solving for p, Initial residual = 0.056568, Final residual = 0.0035885, No Iterations 2
time step continuity errors : sum local = 0.0014041, global = 3.00675e-05, cumulative = 0.00503758
ExecutionTime = 1.8 s  ClockTime = 2 s

Time = 73

smoothSolver:  Solving for Ux, Initial residual = 0.00522417, Final residual = 0.000143371, No Iterations 4
smoothSolver:  Solving for Uy, Initial residual = 0.0185562, Final residual = 0.000375125, No Iterations 4
GAMG:  Solving for p, Initial residual = 0.0603857, Final residual = 0.00383704, No Iterations 2
time step continuity errors : sum local = 0.00149119, global = 2.17315e-05, cumulative = 0.00505931
ExecutionTime = 1.83 s  ClockTime = 3 s

Time = 74

smoothSolver:  Solving for Ux, Initial residual = 0.0053099, Final residual = 0.000146562, No Iterations 4
smoothSolver:  Solving for Uy, Initial residual = 0.0192368, Final residual = 0.000390061, No Iterations 4
GAMG:  Solving for p, Initial residual = 0.0641181, Final residual = 0.0040135, No Iterations 2
time step continuity errors : sum local = 0.00155167, global = 2.43441e-05, cumulative = 0.00508366
ExecutionTime = 1.85 s  ClockTime = 3 s

Time = 75

smoothSolver:  Solving for Ux, Initial residual = 0.00540336, Final residual = 0.000150382, No Iterations 4
smoothSolver:  Solving for Uy, Initial residual = 0.0198699, Final residual = 0.000403364, No Iterations 4
GAMG:  Solving for p, Initial residual = 0.0675587, Final residual = 0.00408749, No Iterations 2
time step continuity errors : sum local = 0.0015769, global = 3.63979e-05, cumulative = 0.00512006
ExecutionTime = 1.86 s  ClockTime = 3 s

Time = 76

smoothSolver:  Solving for Ux, Initial residual = 0.00550835, Final residual = 0.000154411, No Iterations 4
smoothSolver:  Solving for Uy, Initial residual = 0.0204592, Final residual = 0.000415189, No Iterations 4
GAMG:  Solving for p, Initial residual = 0.0704227, Final residual = 0.00411168, No Iterations 2
time step continuity errors : sum local = 0.00158714, global = 5.70556e-05, cumulative = 0.00517711
ExecutionTime = 1.88 s  ClockTime = 3 s

Time = 77

smoothSolver:  Solving for Ux, Initial residual = 0.00561782, Final residual = 0.000158578, No Iterations 4
smoothSolver:  Solving for Uy, Initial residual = 0.0210149, Final residual = 0.000425212, No Iterations 4
GAMG:  Solving for p, Initial residual = 0.0732312, Final residual = 0.00416582, No Iterations 2
time step continuity errors : sum local = 0.00160628, global = 7.9108e-05, cumulative = 0.00525622
ExecutionTime = 1.9 s  ClockTime = 3 s

Time = 78

smoothSolver:  Solving for Ux, Initial residual = 0.00573737, Final residual = 0.000162896, No Iterations 4
smoothSolver:  Solving for Uy, Initial residual = 0.0215376, Final residual = 0.00214266, No Iterations 2
GAMG:  Solving for p, Initial residual = 0.07696, Final residual = 0.00424032, No Iterations 2
time step continuity errors : sum local = 0.00163723, global = 9.09241e-05, cumulative = 0.00534714
ExecutionTime = 1.92 s  ClockTime = 3 s

Time = 79

smoothSolver:  Solving for Ux, Initial residual = 0.00575666, Final residual = 0.000162728, No Iterations 4
smoothSolver:  Solving for Uy, Initial residual = 0.0225014, Final residual = 0.000469928, No Iterations 4
GAMG:  Solving for p, Initial residual = 0.0766062, Final residual = 0.00403217, No Iterations 2
time step continuity errors : sum local = 0.00155216, global = 7.47093e-05, cumulative = 0.00542185
ExecutionTime = 1.94 s  ClockTime = 3 s

Time = 80

smoothSolver:  Solving for Ux, Initial residual = 0.00590653, Final residual = 0.000167784, No Iterations 4
smoothSolver:  Solving for Uy, Initial residual = 0.0227539, Final residual = 0.00224674, No Iterations 2
GAMG:  Solving for p, Initial residual = 0.0802448, Final residual = 0.00407785, No Iterations 2
time step continuity errors : sum local = 0.00157575, global = 3.14419e-05, cumulative = 0.00545329
ExecutionTime = 2 s  ClockTime = 3 s

Time = 81

smoothSolver:  Solving for Ux, Initial residual = 0.00595842, Final residual = 0.000168317, No Iterations 4
smoothSolver:  Solving for Uy, Initial residual = 0.0233705, Final residual = 0.00230199, No Iterations 2
GAMG:  Solving for p, Initial residual = 0.0814171, Final residual = 0.00422304, No Iterations 2
time step continuity errors : sum local = 0.00163812, global = -4.89699e-05, cumulative = 0.00540432
ExecutionTime = 2.03 s  ClockTime = 3 s

Time = 82

smoothSolver:  Solving for Ux, Initial residual = 0.00598996, Final residual = 0.000168063, No Iterations 4
smoothSolver:  Solving for Uy, Initial residual = 0.0239743, Final residual = 0.00235893, No Iterations 2
GAMG:  Solving for p, Initial residual = 0.081735, Final residual = 0.00451089, No Iterations 2
time step continuity errors : sum local = 0.00175174, global = -0.00016349, cumulative = 0.00524083
ExecutionTime = 2.05 s  ClockTime = 3 s

Time = 83

smoothSolver:  Solving for Ux, Initial residual = 0.00603179, Final residual = 0.000168026, No Iterations 4
smoothSolver:  Solving for Uy, Initial residual = 0.024422, Final residual = 0.00238528, No Iterations 2
GAMG:  Solving for p, Initial residual = 0.0832911, Final residual = 0.00496342, No Iterations 2
time step continuity errors : sum local = 0.00191271, global = -0.000319379, cumulative = 0.00492145
ExecutionTime = 2.07 s  ClockTime = 3 s

Time = 84

smoothSolver:  Solving for Ux, Initial residual = 0.00607895, Final residual = 0.000168667, No Iterations 4
smoothSolver:  Solving for Uy, Initial residual = 0.0247465, Final residual = 0.00238163, No Iterations 2
GAMG:  Solving for p, Initial residual = 0.0855995, Final residual = 0.00549105, No Iterations 2
time step continuity errors : sum local = 0.0020946, global = -0.000505755, cumulative = 0.0044157
ExecutionTime = 2.1 s  ClockTime = 3 s

Time = 85

smoothSolver:  Solving for Ux, Initial residual = 0.0061083, Final residual = 0.000168519, No Iterations 4
smoothSolver:  Solving for Uy, Initial residual = 0.0250363, Final residual = 0.00234265, No Iterations 2
GAMG:  Solving for p, Initial residual = 0.0891438, Final residual = 0.00612939, No Iterations 2
time step continuity errors : sum local = 0.00227478, global = -0.000706618, cumulative = 0.00370908
ExecutionTime = 2.12 s  ClockTime = 3 s

Time = 86

smoothSolver:  Solving for Ux, Initial residual = 0.00612098, Final residual = 0.000169056, No Iterations 4
smoothSolver:  Solving for Uy, Initial residual = 0.0252315, Final residual = 0.00227551, No Iterations 2
GAMG:  Solving for p, Initial residual = 0.0922182, Final residual = 0.00673851, No Iterations 2
time step continuity errors : sum local = 0.00241503, global = -0.000868435, cumulative = 0.00284065
ExecutionTime = 2.15 s  ClockTime = 3 s

Time = 87

smoothSolver:  Solving for Ux, Initial residual = 0.00612613, Final residual = 0.000170091, No Iterations 4
smoothSolver:  Solving for Uy, Initial residual = 0.0252856, Final residual = 0.00219073, No Iterations 2
GAMG:  Solving for p, Initial residual = 0.0953219, Final residual = 0.00730998, No Iterations 2
time step continuity errors : sum local = 0.00249905, global = -0.000974353, cumulative = 0.00186629
ExecutionTime = 2.17 s  ClockTime = 3 s

Time = 88

smoothSolver:  Solving for Ux, Initial residual = 0.00611742, Final residual = 0.000170135, No Iterations 4
smoothSolver:  Solving for Uy, Initial residual = 0.0251001, Final residual = 0.00209533, No Iterations 2
GAMG:  Solving for p, Initial residual = 0.0991618, Final residual = 0.0077367, No Iterations 2
time step continuity errors : sum local = 0.002503, global = -0.000995766, cumulative = 0.000870527
ExecutionTime = 2.18 s  ClockTime = 3 s

Time = 89

smoothSolver:  Solving for Ux, Initial residual = 0.00609606, Final residual = 0.000169943, No Iterations 4
smoothSolver:  Solving for Uy, Initial residual = 0.0247088, Final residual = 0.00201664, No Iterations 2
GAMG:  Solving for p, Initial residual = 0.103919, Final residual = 0.00807625, No Iterations 2
time step continuity errors : sum local = 0.00246921, global = -0.000931821, cumulative = -6.12942e-05
ExecutionTime = 2.2 s  ClockTime = 3 s

Time = 90

smoothSolver:  Solving for Ux, Initial residual = 0.00604699, Final residual = 0.000168425, No Iterations 4
smoothSolver:  Solving for Uy, Initial residual = 0.0241487, Final residual = 0.00196983, No Iterations 2
GAMG:  Solving for p, Initial residual = 0.110179, Final residual = 0.00838986, No Iterations 2
time step continuity errors : sum local = 0.00242312, global = -0.00075142, cumulative = -0.000812715
ExecutionTime = 2.25 s  ClockTime = 3 s

Time = 91

smoothSolver:  Solving for Ux, Initial residual = 0.00596775, Final residual = 0.000167188, No Iterations 4
smoothSolver:  Solving for Uy, Initial residual = 0.0234861, Final residual = 0.0019475, No Iterations 2
GAMG:  Solving for p, Initial residual = 0.115568, Final residual = 0.00859261, No Iterations 2
time step continuity errors : sum local = 0.00236344, global = -0.000422661, cumulative = -0.00123538
ExecutionTime = 2.26 s  ClockTime = 3 s

Time = 92

smoothSolver:  Solving for Ux, Initial residual = 0.00586839, Final residual = 0.00016586, No Iterations 4
smoothSolver:  Solving for Uy, Initial residual = 0.0227444, Final residual = 0.00192152, No Iterations 2
GAMG:  Solving for p, Initial residual = 0.118515, Final residual = 0.00847244, No Iterations 2
time step continuity errors : sum local = 0.00223355, global = 3.57956e-05, cumulative = -0.00119958
ExecutionTime = 2.28 s  ClockTime = 3 s

Time = 93

smoothSolver:  Solving for Ux, Initial residual = 0.00574955, Final residual = 0.000165045, No Iterations 4
smoothSolver:  Solving for Uy, Initial residual = 0.0219251, Final residual = 0.00188236, No Iterations 2
GAMG:  Solving for p, Initial residual = 0.118821, Final residual = 0.00785643, No Iterations 2
time step continuity errors : sum local = 0.00201244, global = 0.000523692, cumulative = -0.000675888
ExecutionTime = 2.3 s  ClockTime = 3 s

Time = 94

smoothSolver:  Solving for Ux, Initial residual = 0.00561984, Final residual = 0.000164658, No Iterations 4
smoothSolver:  Solving for Uy, Initial residual = 0.0210753, Final residual = 0.00183421, No Iterations 2
GAMG:  Solving for p, Initial residual = 0.115632, Final residual = 0.00833711, No Iterations 2
time step continuity errors : sum local = 0.00212426, global = 0.000671667, cumulative = -4.22183e-06
ExecutionTime = 2.31 s  ClockTime = 3 s

Time = 95

smoothSolver:  Solving for Ux, Initial residual = 0.00545131, Final residual = 0.000163029, No Iterations 4
smoothSolver:  Solving for Uy, Initial residual = 0.0202147, Final residual = 0.00178029, No Iterations 2
GAMG:  Solving for p, Initial residual = 0.107063, Final residual = 0.00774254, No Iterations 2
time step continuity errors : sum local = 0.00207018, global = 0.000630644, cumulative = 0.000626422
ExecutionTime = 2.33 s  ClockTime = 3 s

Time = 96

smoothSolver:  Solving for Ux, Initial residual = 0.00532611, Final residual = 0.00016013, No Iterations 4
smoothSolver:  Solving for Uy, Initial residual = 0.0193022, Final residual = 0.00172202, No Iterations 2
GAMG:  Solving for p, Initial residual = 0.0984121, Final residual = 0.00611739, No Iterations 2
time step continuity errors : sum local = 0.00174627, global = 0.000638039, cumulative = 0.00126446
ExecutionTime = 2.35 s  ClockTime = 3 s

Time = 97

smoothSolver:  Solving for Ux, Initial residual = 0.00525771, Final residual = 0.000158092, No Iterations 4
smoothSolver:  Solving for Uy, Initial residual = 0.0184531, Final residual = 0.00168079, No Iterations 2
GAMG:  Solving for p, Initial residual = 0.0929968, Final residual = 0.00569295, No Iterations 2
time step continuity errors : sum local = 0.00169547, global = 0.00064379, cumulative = 0.00190825
ExecutionTime = 2.36 s  ClockTime = 3 s

Time = 98

smoothSolver:  Solving for Ux, Initial residual = 0.00522472, Final residual = 0.000157562, No Iterations 4
smoothSolver:  Solving for Uy, Initial residual = 0.0177909, Final residual = 0.00165899, No Iterations 2
GAMG:  Solving for p, Initial residual = 0.0892539, Final residual = 0.00603432, No Iterations 2
time step continuity errors : sum local = 0.00185033, global = 0.000676899, cumulative = 0.00258515
ExecutionTime = 2.37 s  ClockTime = 3 s

Time = 99

smoothSolver:  Solving for Ux, Initial residual = 0.00522418, Final residual = 0.000158315, No Iterations 4
smoothSolver:  Solving for Uy, Initial residual = 0.0173207, Final residual = 0.00164706, No Iterations 2
GAMG:  Solving for p, Initial residual = 0.0850017, Final residual = 0.00659375, No Iterations 2
time step continuity errors : sum local = 0.00208007, global = 0.000755505, cumulative = 0.00334065
ExecutionTime = 2.39 s  ClockTime = 3 s

Time = 100

smoothSolver:  Solving for Ux, Initial residual = 0.00525408, Final residual = 0.00015862, No Iterations 4
smoothSolver:  Solving for Uy, Initial residual = 0.0170169, Final residual = 0.00164576, No Iterations 2
GAMG:  Solving for p, Initial residual = 0.0795603, Final residual = 0.00698741, No Iterations 2
time step continuity errors : sum local = 0.00227664, global = 0.000853624, cumulative = 0.00419428
ExecutionTime = 2.43 s  ClockTime = 3 s

Time = 101

smoothSolver:  Solving for Ux, Initial residual = 0.00530397, Final residual = 0.00015724, No Iterations 4
smoothSolver:  Solving for Uy, Initial residual = 0.0168633, Final residual = 0.00165225, No Iterations 2
GAMG:  Solving for p, Initial residual = 0.0734403, Final residual = 0.00701474, No Iterations 2
time step continuity errors : sum local = 0.00238414, global = 0.000934566, cumulative = 0.00512884
ExecutionTime = 2.45 s  ClockTime = 3 s

Time = 102

smoothSolver:  Solving for Ux, Initial residual = 0.00534841, Final residual = 0.000154519, No Iterations 4
smoothSolver:  Solving for Uy, Initial residual = 0.0167757, Final residual = 0.00166815, No Iterations 2
GAMG:  Solving for p, Initial residual = 0.0683913, Final residual = 0.0067993, No Iterations 2
time step continuity errors : sum local = 0.00240585, global = 0.000966154, cumulative = 0.006095
ExecutionTime = 2.46 s  ClockTime = 3 s

Time = 103

smoothSolver:  Solving for Ux, Initial residual = 0.0053741, Final residual = 0.000151615, No Iterations 4
smoothSolver:  Solving for Uy, Initial residual = 0.0167352, Final residual = 0.000374345, No Iterations 4
GAMG:  Solving for p, Initial residual = 0.0654712, Final residual = 0.00644869, No Iterations 2
time step continuity errors : sum local = 0.0023898, global = 0.000968596, cumulative = 0.00706359
ExecutionTime = 2.48 s  ClockTime = 3 s

Time = 104

smoothSolver:  Solving for Ux, Initial residual = 0.00545011, Final residual = 0.000152845, No Iterations 4
smoothSolver:  Solving for Uy, Initial residual = 0.0163523, Final residual = 0.00161851, No Iterations 2
GAMG:  Solving for p, Initial residual = 0.0615726, Final residual = 0.00276836, No Iterations 3
time step continuity errors : sum local = 0.00107298, global = 0.000372484, cumulative = 0.00743608
ExecutionTime = 2.49 s  ClockTime = 3 s

Time = 105

smoothSolver:  Solving for Ux, Initial residual = 0.00537086, Final residual = 0.000149758, No Iterations 4
smoothSolver:  Solving for Uy, Initial residual = 0.0165869, Final residual = 0.000363568, No Iterations 4
GAMG:  Solving for p, Initial residual = 0.0558475, Final residual = 0.00526485, No Iterations 2
time step continuity errors : sum local = 0.00214035, global = 0.000549553, cumulative = 0.00798563
ExecutionTime = 2.52 s  ClockTime = 3 s

Time = 106

smoothSolver:  Solving for Ux, Initial residual = 0.0053666, Final residual = 0.000149271, No Iterations 4
smoothSolver:  Solving for Uy, Initial residual = 0.0164236, Final residual = 0.000362224, No Iterations 4
GAMG:  Solving for p, Initial residual = 0.053998, Final residual = 0.00243623, No Iterations 3
time step continuity errors : sum local = 0.00100941, global = -8.06795e-05, cumulative = 0.00790495
ExecutionTime = 2.53 s  ClockTime = 3 s

Time = 107

smoothSolver:  Solving for Ux, Initial residual = 0.00523488, Final residual = 0.000145796, No Iterations 4
smoothSolver:  Solving for Uy, Initial residual = 0.0164458, Final residual = 0.000355159, No Iterations 4
GAMG:  Solving for p, Initial residual = 0.0515568, Final residual = 0.00264259, No Iterations 3
time step continuity errors : sum local = 0.00110555, global = -0.000185422, cumulative = 0.00771953
ExecutionTime = 2.55 s  ClockTime = 3 s

Time = 108

smoothSolver:  Solving for Ux, Initial residual = 0.00505078, Final residual = 0.000140232, No Iterations 4
smoothSolver:  Solving for Uy, Initial residual = 0.016548, Final residual = 0.000353967, No Iterations 4
GAMG:  Solving for p, Initial residual = 0.0510258, Final residual = 0.00468699, No Iterations 2
time step continuity errors : sum local = 0.00190706, global = -0.000378783, cumulative = 0.00734075
ExecutionTime = 2.56 s  ClockTime = 3 s

Time = 109

smoothSolver:  Solving for Ux, Initial residual = 0.00493318, Final residual = 0.000136098, No Iterations 4
smoothSolver:  Solving for Uy, Initial residual = 0.0162389, Final residual = 0.000354584, No Iterations 4
GAMG:  Solving for p, Initial residual = 0.0492943, Final residual = 0.00492439, No Iterations 2
time step continuity errors : sum local = 0.00200191, global = -0.00053423, cumulative = 0.00680652
ExecutionTime = 2.58 s  ClockTime = 3 s

Time = 110

smoothSolver:  Solving for Ux, Initial residual = 0.00474785, Final residual = 0.000131239, No Iterations 4
smoothSolver:  Solving for Uy, Initial residual = 0.0160473, Final residual = 0.000357133, No Iterations 4
GAMG:  Solving for p, Initial residual = 0.0490126, Final residual = 0.00297493, No Iterations 3
time step continuity errors : sum local = 0.00117735, global = -0.000241029, cumulative = 0.00656549
ExecutionTime = 2.63 s  ClockTime = 4 s

Time = 111

smoothSolver:  Solving for Ux, Initial residual = 0.00456804, Final residual = 0.000124961, No Iterations 4
smoothSolver:  Solving for Uy, Initial residual = 0.0161771, Final residual = 0.00036266, No Iterations 4
GAMG:  Solving for p, Initial residual = 0.0518407, Final residual = 0.00491598, No Iterations 2
time step continuity errors : sum local = 0.00173577, global = -0.000545619, cumulative = 0.00601987
ExecutionTime = 2.64 s  ClockTime = 4 s

Time = 112

smoothSolver:  Solving for Ux, Initial residual = 0.00440969, Final residual = 0.000122774, No Iterations 4
smoothSolver:  Solving for Uy, Initial residual = 0.0155458, Final residual = 0.000348601, No Iterations 4
GAMG:  Solving for p, Initial residual = 0.0514324, Final residual = 0.00498313, No Iterations 2
time step continuity errors : sum local = 0.00170476, global = -0.000584863, cumulative = 0.00543501
ExecutionTime = 2.66 s  ClockTime = 4 s

Time = 113

smoothSolver:  Solving for Ux, Initial residual = 0.00425494, Final residual = 0.000121405, No Iterations 4
smoothSolver:  Solving for Uy, Initial residual = 0.0148101, Final residual = 0.000338624, No Iterations 4
GAMG:  Solving for p, Initial residual = 0.0523391, Final residual = 0.00337718, No Iterations 3
time step continuity errors : sum local = 0.00111516, global = -0.00026265, cumulative = 0.00517236
ExecutionTime = 2.67 s  ClockTime = 4 s

Time = 114

smoothSolver:  Solving for Ux, Initial residual = 0.00411996, Final residual = 0.000120992, No Iterations 4
smoothSolver:  Solving for Uy, Initial residual = 0.0143723, Final residual = 0.000336109, No Iterations 4
GAMG:  Solving for p, Initial residual = 0.0581338, Final residual = 0.00550621, No Iterations 2
time step continuity errors : sum local = 0.00160712, global = -0.000634295, cumulative = 0.00453806
ExecutionTime = 2.69 s  ClockTime = 4 s

Time = 115

smoothSolver:  Solving for Ux, Initial residual = 0.00402181, Final residual = 0.000123135, No Iterations 4
smoothSolver:  Solving for Uy, Initial residual = 0.0133797, Final residual = 0.000314423, No Iterations 4
GAMG:  Solving for p, Initial residual = 0.0611171, Final residual = 0.00598082, No Iterations 2
time step continuity errors : sum local = 0.00166408, global = -0.000675789, cumulative = 0.00386227
ExecutionTime = 2.71 s  ClockTime = 4 s

Time = 116

smoothSolver:  Solving for Ux, Initial residual = 0.00394709, Final residual = 0.000127196, No Iterations 4
smoothSolver:  Solving for Uy, Initial residual = 0.0124854, Final residual = 0.0003003, No Iterations 4
GAMG:  Solving for p, Initial residual = 0.0654955, Final residual = 0.0042855, No Iterations 3
time step continuity errors : sum local = 0.00111653, global = -0.000257337, cumulative = 0.00360494
ExecutionTime = 2.72 s  ClockTime = 4 s

Time = 117

smoothSolver:  Solving for Ux, Initial residual = 0.00389241, Final residual = 0.000135314, No Iterations 4
smoothSolver:  Solving for Uy, Initial residual = 0.0119754, Final residual = 0.000297548, No Iterations 4
GAMG:  Solving for p, Initial residual = 0.0750055, Final residual = 0.0064268, No Iterations 2
time step continuity errors : sum local = 0.00141301, global = -0.000595853, cumulative = 0.00300908
ExecutionTime = 2.74 s  ClockTime = 4 s

Time = 118

smoothSolver:  Solving for Ux, Initial residual = 0.00382787, Final residual = 0.000139115, No Iterations 4
smoothSolver:  Solving for Uy, Initial residual = 0.0110735, Final residual = 0.000282333, No Iterations 4
GAMG:  Solving for p, Initial residual = 0.0774214, Final residual = 0.00651585, No Iterations 2
time step continuity errors : sum local = 0.00135353, global = -0.000548767, cumulative = 0.00246032
ExecutionTime = 2.75 s  ClockTime = 4 s

Time = 119

smoothSolver:  Solving for Ux, Initial residual = 0.00377437, Final residual = 0.000142771, No Iterations 4
smoothSolver:  Solving for Uy, Initial residual = 0.0102611, Final residual = 0.000278485, No Iterations 4
GAMG:  Solving for p, Initial residual = 0.0808132, Final residual = 0.00695954, No Iterations 2
time step continuity errors : sum local = 0.00136834, global = -0.000522281, cumulative = 0.00193803
ExecutionTime = 2.77 s  ClockTime = 4 s

Time = 120

smoothSolver:  Solving for Ux, Initial residual = 0.00372566, Final residual = 0.000146615, No Iterations 4
smoothSolver:  Solving for Uy, Initial residual = 0.00950353, Final residual = 0.000272723, No Iterations 4
GAMG:  Solving for p, Initial residual = 0.0839688, Final residual = 0.0076202, No Iterations 2
time step continuity errors : sum local = 0.00139745, global = -0.000509448, cumulative = 0.00142859
ExecutionTime = 2.83 s  ClockTime = 4 s

Time = 121

smoothSolver:  Solving for Ux, Initial residual = 0.00367798, Final residual = 0.000149993, No Iterations 4
smoothSolver:  Solving for Uy, Initial residual = 0.00883139, Final residual = 0.000264404, No Iterations 4
GAMG:  Solving for p, Initial residual = 0.0888869, Final residual = 0.00815806, No Iterations 2
time step continuity errors : sum local = 0.00137596, global = -0.000499021, cumulative = 0.000929566
ExecutionTime = 2.85 s  ClockTime = 4 s

Time = 122

smoothSolver:  Solving for Ux, Initial residual = 0.0036227, Final residual = 0.000151848, No Iterations 4
smoothSolver:  Solving for Uy, Initial residual = 0.00823413, Final residual = 0.000256461, No Iterations 4
GAMG:  Solving for p, Initial residual = 0.0948828, Final residual = 0.00839228, No Iterations 2
time step continuity errors : sum local = 0.00129744, global = -0.000495639, cumulative = 0.000433927
ExecutionTime = 2.87 s  ClockTime = 4 s

Time = 123

smoothSolver:  Solving for Ux, Initial residual = 0.0035532, Final residual = 0.000151997, No Iterations 4
smoothSolver:  Solving for Uy, Initial residual = 0.00767159, Final residual = 0.000250164, No Iterations 4
GAMG:  Solving for p, Initial residual = 0.101577, Final residual = 0.00873371, No Iterations 2
time step continuity errors : sum local = 0.00123814, global = -0.000482111, cumulative = -4.81838e-05
ExecutionTime = 2.89 s  ClockTime = 4 s

Time = 124

smoothSolver:  Solving for Ux, Initial residual = 0.00347585, Final residual = 0.000151087, No Iterations 4
smoothSolver:  Solving for Uy, Initial residual = 0.00712081, Final residual = 0.000244154, No Iterations 4
GAMG:  Solving for p, Initial residual = 0.107302, Final residual = 0.00918117, No Iterations 2
time step continuity errors : sum local = 0.00121085, global = -0.000452338, cumulative = -0.000500522
ExecutionTime = 2.9 s  ClockTime = 4 s

Time = 125

smoothSolver:  Solving for Ux, Initial residual = 0.00340296, Final residual = 0.00014908, No Iterations 4
smoothSolver:  Solving for Uy, Initial residual = 0.00658913, Final residual = 0.000237541, No Iterations 4
GAMG:  Solving for p, Initial residual = 0.111435, Final residual = 0.0096044, No Iterations 2
time step continuity errors : sum local = 0.00119109, global = -0.000410198, cumulative = -0.00091072
ExecutionTime = 2.92 s  ClockTime = 4 s

Time = 126

smoothSolver:  Solving for Ux, Initial residual = 0.00333476, Final residual = 0.000146116, No Iterations 4
smoothSolver:  Solving for Uy, Initial residual = 0.00610811, Final residual = 0.000230775, No Iterations 4
GAMG:  Solving for p, Initial residual = 0.114366, Final residual = 0.0099845, No Iterations 2
time step continuity errors : sum local = 0.00116992, global = -0.00035601, cumulative = -0.00126673
ExecutionTime = 2.93 s  ClockTime = 4 s

Time = 127

smoothSolver:  Solving for Ux, Initial residual = 0.00326051, Final residual = 0.000142382, No Iterations 4
smoothSolver:  Solving for Uy, Initial residual = 0.00573855, Final residual = 0.000226293, No Iterations 4
GAMG:  Solving for p, Initial residual = 0.115009, Final residual = 0.00993282, No Iterations 2
time step continuity errors : sum local = 0.00111492, global = -0.000298773, cumulative = -0.0015655
ExecutionTime = 2.95 s  ClockTime = 4 s

Time = 128

smoothSolver:  Solving for Ux, Initial residual = 0.00318618, Final residual = 0.000137461, No Iterations 4
smoothSolver:  Solving for Uy, Initial residual = 0.00551359, Final residual = 0.000224284, No Iterations 4
GAMG:  Solving for p, Initial residual = 0.113383, Final residual = 0.00992592, No Iterations 2
time step continuity errors : sum local = 0.00107468, global = -0.000240754, cumulative = -0.00180626
ExecutionTime = 2.97 s  ClockTime = 4 s

Time = 129

smoothSolver:  Solving for Ux, Initial residual = 0.00310878, Final residual = 0.000131867, No Iterations 4
smoothSolver:  Solving for Uy, Initial residual = 0.005387, Final residual = 0.000221927, No Iterations 4
GAMG:  Solving for p, Initial residual = 0.112163, Final residual = 0.00999374, No Iterations 2
time step continuity errors : sum local = 0.00104794, global = -0.000177717, cumulative = -0.00198397
ExecutionTime = 2.99 s  ClockTime = 4 s

Time = 130

smoothSolver:  Solving for Ux, Initial residual = 0.00302508, Final residual = 0.000126012, No Iterations 4
smoothSolver:  Solving for Uy, Initial residual = 0.00529092, Final residual = 0.000217778, No Iterations 4
GAMG:  Solving for p, Initial residual = 0.109103, Final residual = 0.00991877, No Iterations 2
time step continuity errors : sum local = 0.00101605, global = -0.000106666, cumulative = -0.00209064
ExecutionTime = 3.03 s  ClockTime = 4 s

Time = 131

smoothSolver:  Solving for Ux, Initial residual = 0.00293575, Final residual = 0.000119665, No Iterations 4
smoothSolver:  Solving for Uy, Initial residual = 0.00518196, Final residual = 0.000211424, No Iterations 4
GAMG:  Solving for p, Initial residual = 0.103807, Final residual = 0.00965828, No Iterations 2
time step continuity errors : sum local = 0.000969304, global = -2.16766e-05, cumulative = -0.00211232
ExecutionTime = 3.06 s  ClockTime = 4 s

Time = 132

smoothSolver:  Solving for Ux, Initial residual = 0.00284027, Final residual = 0.000113087, No Iterations 4
smoothSolver:  Solving for Uy, Initial residual = 0.00504939, Final residual = 0.000204052, No Iterations 4
GAMG:  Solving for p, Initial residual = 0.097517, Final residual = 0.00932192, No Iterations 2
time step continuity errors : sum local = 0.000922712, global = 8.16609e-05, cumulative = -0.00203066
ExecutionTime = 3.07 s  ClockTime = 4 s

Time = 133

smoothSolver:  Solving for Ux, Initial residual = 0.00272982, Final residual = 0.000106333, No Iterations 4
smoothSolver:  Solving for Uy, Initial residual = 0.00491316, Final residual = 0.000196812, No Iterations 4
GAMG:  Solving for p, Initial residual = 0.0901322, Final residual = 0.0088911, No Iterations 2
time step continuity errors : sum local = 0.000880874, global = 0.000153181, cumulative = -0.00187747
ExecutionTime = 3.09 s  ClockTime = 4 s

Time = 134

smoothSolver:  Solving for Ux, Initial residual = 0.00260491, Final residual = 9.8928e-05, No Iterations 4
smoothSolver:  Solving for Uy, Initial residual = 0.00477206, Final residual = 0.000190433, No Iterations 4
GAMG:  Solving for p, Initial residual = 0.0799069, Final residual = 0.00389305, No Iterations 3
time step continuity errors : sum local = 0.000398964, global = 6.02454e-05, cumulative = -0.00181723
ExecutionTime = 3.12 s  ClockTime = 4 s

Time = 135

smoothSolver:  Solving for Ux, Initial residual = 0.00246421, Final residual = 9.0184e-05, No Iterations 4
smoothSolver:  Solving for Uy, Initial residual = 0.00460212, Final residual = 0.000184353, No Iterations 4
GAMG:  Solving for p, Initial residual = 0.0656389, Final residual = 0.00526153, No Iterations 2
time step continuity errors : sum local = 0.000601279, global = 0.000145357, cumulative = -0.00167187
ExecutionTime = 3.14 s  ClockTime = 4 s

Time = 136

smoothSolver:  Solving for Ux, Initial residual = 0.00234158, Final residual = 8.44867e-05, No Iterations 4
smoothSolver:  Solving for Uy, Initial residual = 0.00443557, Final residual = 0.00017442, No Iterations 4
GAMG:  Solving for p, Initial residual = 0.0585592, Final residual = 0.00504797, No Iterations 2
time step continuity errors : sum local = 0.00059095, global = 0.000161451, cumulative = -0.00151042
ExecutionTime = 3.16 s  ClockTime = 4 s

Time = 137

smoothSolver:  Solving for Ux, Initial residual = 0.00220824, Final residual = 7.86256e-05, No Iterations 4
smoothSolver:  Solving for Uy, Initial residual = 0.00427747, Final residual = 0.000163879, No Iterations 4
GAMG:  Solving for p, Initial residual = 0.0543358, Final residual = 0.00313956, No Iterations 3
time step continuity errors : sum local = 0.000377378, global = 8.05112e-05, cumulative = -0.00142991
ExecutionTime = 3.19 s  ClockTime = 4 s

Time = 138

smoothSolver:  Solving for Ux, Initial residual = 0.00204485, Final residual = 6.98312e-05, No Iterations 4
smoothSolver:  Solving for Uy, Initial residual = 0.00413894, Final residual = 0.000154237, No Iterations 4
GAMG:  Solving for p, Initial residual = 0.0470778, Final residual = 0.00278268, No Iterations 3
time step continuity errors : sum local = 0.000363168, global = 8.29837e-05, cumulative = -0.00134693
ExecutionTime = 3.22 s  ClockTime = 4 s

Time = 139

smoothSolver:  Solving for Ux, Initial residual = 0.001888, Final residual = 6.206e-05, No Iterations 4
smoothSolver:  Solving for Uy, Initial residual = 0.00401655, Final residual = 0.000145033, No Iterations 4
GAMG:  Solving for p, Initial residual = 0.0409913, Final residual = 0.00236437, No Iterations 3
time step continuity errors : sum local = 0.00033395, global = 8.23873e-05, cumulative = -0.00126454
ExecutionTime = 3.24 s  ClockTime = 4 s

Time = 140

smoothSolver:  Solving for Ux, Initial residual = 0.00173895, Final residual = 5.53268e-05, No Iterations 4
smoothSolver:  Solving for Uy, Initial residual = 0.00386684, Final residual = 0.000135411, No Iterations 4
GAMG:  Solving for p, Initial residual = 0.0362341, Final residual = 0.00206453, No Iterations 3
time step continuity errors : sum local = 0.000312701, global = 8.40297e-05, cumulative = -0.00118051
ExecutionTime = 3.3 s  ClockTime = 4 s

Time = 141

smoothSolver:  Solving for Ux, Initial residual = 0.00159572, Final residual = 4.91456e-05, No Iterations 4
smoothSolver:  Solving for Uy, Initial residual = 0.00371225, Final residual = 0.000125251, No Iterations 4
GAMG:  Solving for p, Initial residual = 0.0319565, Final residual = 0.00188414, No Iterations 3
time step continuity errors : sum local = 0.000304364, global = 8.70761e-05, cumulative = -0.00109343
ExecutionTime = 3.32 s  ClockTime = 4 s

Time = 142

smoothSolver:  Solving for Ux, Initial residual = 0.00146186, Final residual = 4.3542e-05, No Iterations 4
smoothSolver:  Solving for Uy, Initial residual = 0.00355055, Final residual = 0.000115025, No Iterations 4
GAMG:  Solving for p, Initial residual = 0.0286265, Final residual = 0.001754, No Iterations 3
time step continuity errors : sum local = 0.000302047, global = 8.86341e-05, cumulative = -0.0010048
ExecutionTime = 3.34 s  ClockTime = 4 s

Time = 143

smoothSolver:  Solving for Ux, Initial residual = 0.00134277, Final residual = 3.86473e-05, No Iterations 4
smoothSolver:  Solving for Uy, Initial residual = 0.00337759, Final residual = 0.000105186, No Iterations 4
GAMG:  Solving for p, Initial residual = 0.0259095, Final residual = 0.00158866, No Iterations 3
time step continuity errors : sum local = 0.000291348, global = 8.71967e-05, cumulative = -0.000917603
ExecutionTime = 3.36 s  ClockTime = 4 s

Time = 144

smoothSolver:  Solving for Ux, Initial residual = 0.00124217, Final residual = 3.46865e-05, No Iterations 4
smoothSolver:  Solving for Uy, Initial residual = 0.00320032, Final residual = 9.6212e-05, No Iterations 4
GAMG:  Solving for p, Initial residual = 0.0233082, Final residual = 0.00140301, No Iterations 3
time step continuity errors : sum local = 0.000272268, global = 8.15089e-05, cumulative = -0.000836094
ExecutionTime = 3.37 s  ClockTime = 5 s

Time = 145

smoothSolver:  Solving for Ux, Initial residual = 0.00115824, Final residual = 3.17169e-05, No Iterations 4
smoothSolver:  Solving for Uy, Initial residual = 0.00302012, Final residual = 8.8021e-05, No Iterations 4
GAMG:  Solving for p, Initial residual = 0.0209752, Final residual = 0.00120907, No Iterations 3
time step continuity errors : sum local = 0.000246055, global = 7.31762e-05, cumulative = -0.000762918
ExecutionTime = 3.39 s  ClockTime = 5 s

Time = 146

smoothSolver:  Solving for Ux, Initial residual = 0.00108596, Final residual = 2.96006e-05, No Iterations 4
smoothSolver:  Solving for Uy, Initial residual = 0.00284172, Final residual = 8.05914e-05, No Iterations 4
GAMG:  Solving for p, Initial residual = 0.0188743, Final residual = 0.0018674, No Iterations 2
time step continuity errors : sum local = 0.000394588, global = 0.000177133, cumulative = -0.000585784
ExecutionTime = 3.41 s  ClockTime = 5 s

Time = 147

smoothSolver:  Solving for Ux, Initial residual = 0.00102753, Final residual = 2.81668e-05, No Iterations 4
smoothSolver:  Solving for Uy, Initial residual = 0.00265549, Final residual = 7.35462e-05, No Iterations 4
GAMG:  Solving for p, Initial residual = 0.0175405, Final residual = 0.00107414, No Iterations 3
time step continuity errors : sum local = 0.00023132, global = 6.42472e-05, cumulative = -0.000521537
ExecutionTime = 3.43 s  ClockTime = 5 s

Time = 148

smoothSolver:  Solving for Ux, Initial residual = 0.000986116, Final residual = 2.72295e-05, No Iterations 4
smoothSolver:  Solving for Uy, Initial residual = 0.00248858, Final residual = 6.82697e-05, No Iterations 4
GAMG:  Solving for p, Initial residual = 0.0159914, Final residual = 0.00155245, No Iterations 2
time step continuity errors : sum local = 0.000343298, global = 0.000158818, cumulative = -0.000362719
ExecutionTime = 3.44 s  ClockTime = 5 s

Time = 149

smoothSolver:  Solving for Ux, Initial residual = 0.000959232, Final residual = 2.68221e-05, No Iterations 4
smoothSolver:  Solving for Uy, Initial residual = 0.00234134, Final residual = 6.46487e-05, No Iterations 4
GAMG:  Solving for p, Initial residual = 0.0149717, Final residual = 0.00141886, No Iterations 2
time step continuity errors : sum local = 0.000317708, global = 0.000133355, cumulative = -0.000229364
ExecutionTime = 3.47 s  ClockTime = 5 s

Time = 150

smoothSolver:  Solving for Ux, Initial residual = 0.000944704, Final residual = 2.69513e-05, No Iterations 4
smoothSolver:  Solving for Uy, Initial residual = 0.00222817, Final residual = 6.23697e-05, No Iterations 4
GAMG:  Solving for p, Initial residual = 0.0142024, Final residual = 0.00132903, No Iterations 2
time step continuity errors : sum local = 0.000300278, global = 7.97972e-05, cumulative = -0.000149567
ExecutionTime = 3.51 s  ClockTime = 5 s

Time = 151

smoothSolver:  Solving for Ux, Initial residual = 0.00094182, Final residual = 2.73547e-05, No Iterations 4
smoothSolver:  Solving for Uy, Initial residual = 0.00215354, Final residual = 6.07806e-05, No Iterations 4
GAMG:  Solving for p, Initial residual = 0.0136398, Final residual = 0.00120699, No Iterations 2
time step continuity errors : sum local = 0.000274479, global = -1.33338e-05, cumulative = -0.000162901
ExecutionTime = 3.54 s  ClockTime = 5 s

Time = 152

smoothSolver:  Solving for Ux, Initial residual = 0.000946326, Final residual = 2.78078e-05, No Iterations 4
smoothSolver:  Solving for Uy, Initial residual = 0.0021219, Final residual = 5.95745e-05, No Iterations 4
GAMG:  Solving for p, Initial residual = 0.0131535, Final residual = 0.000784008, No Iterations 3
time step continuity errors : sum local = 0.000178926, global = -2.54952e-05, cumulative = -0.000188396
ExecutionTime = 3.55 s  ClockTime = 5 s

Time = 153

smoothSolver:  Solving for Ux, Initial residual = 0.000947512, Final residual = 2.80248e-05, No Iterations 4
smoothSolver:  Solving for Uy, Initial residual = 0.00215065, Final residual = 5.9328e-05, No Iterations 4
GAMG:  Solving for p, Initial residual = 0.0128045, Final residual = 0.000729837, No Iterations 3
time step continuity errors : sum local = 0.000165544, global = -4.31963e-05, cumulative = -0.000231592
ExecutionTime = 3.58 s  ClockTime = 5 s

Time = 154

smoothSolver:  Solving for Ux, Initial residual = 0.000950808, Final residual = 2.85038e-05, No Iterations 4
smoothSolver:  Solving for Uy, Initial residual = 0.00213336, Final residual = 5.75407e-05, No Iterations 4
GAMG:  Solving for p, Initial residual = 0.0126279, Final residual = 0.000685406, No Iterations 3
time step continuity errors : sum local = 0.000153286, global = -4.7446e-05, cumulative = -0.000279038
ExecutionTime = 3.61 s  ClockTime = 5 s

Time = 155

smoothSolver:  Solving for Ux, Initial residual = 0.00095465, Final residual = 2.90232e-05, No Iterations 4
smoothSolver:  Solving for Uy, Initial residual = 0.00210455, Final residual = 5.53073e-05, No Iterations 4
GAMG:  Solving for p, Initial residual = 0.0124447, Final residual = 0.000629456, No Iterations 3
time step continuity errors : sum local = 0.0001387, global = -4.65668e-05, cumulative = -0.000325605
ExecutionTime = 3.64 s  ClockTime = 5 s

Time = 156

smoothSolver:  Solving for Ux, Initial residual = 0.000954357, Final residual = 2.95041e-05, No Iterations 4
smoothSolver:  Solving for Uy, Initial residual = 0.00208008, Final residual = 5.35109e-05, No Iterations 4
GAMG:  Solving for p, Initial residual = 0.0122129, Final residual = 0.000579764, No Iterations 3
time step continuity errors : sum local = 0.000126546, global = -4.67348e-05, cumulative = -0.00037234
ExecutionTime = 3.65 s  ClockTime = 5 s

Time = 157

smoothSolver:  Solving for Ux, Initial residual = 0.000953648, Final residual = 3.00422e-05, No Iterations 4
smoothSolver:  Solving for Uy, Initial residual = 0.00205724, Final residual = 5.25659e-05, No Iterations 4
GAMG:  Solving for p, Initial residual = 0.0119479, Final residual = 0.000556058, No Iterations 3
time step continuity errors : sum local = 0.00012101, global = -4.5414e-05, cumulative = -0.000417754
ExecutionTime = 3.68 s  ClockTime = 5 s

Time = 158

smoothSolver:  Solving for Ux, Initial residual = 0.000953827, Final residual = 3.06125e-05, No Iterations 4
smoothSolver:  Solving for Uy, Initial residual = 0.00203091, Final residual = 5.22201e-05, No Iterations 4
GAMG:  Solving for p, Initial residual = 0.0119045, Final residual = 0.000543639, No Iterations 3
time step continuity errors : sum local = 0.000118365, global = -3.7993e-05, cumulative = -0.000455747
ExecutionTime = 3.71 s  ClockTime = 5 s

Time = 159

smoothSolver:  Solving for Ux, Initial residual = 0.000956604, Final residual = 3.11248e-05, No Iterations 4
smoothSolver:  Solving for Uy, Initial residual = 0.001998, Final residual = 5.24922e-05, No Iterations 4
GAMG:  Solving for p, Initial residual = 0.0120582, Final residual = 0.00117238, No Iterations 2
time step continuity errors : sum local = 0.000256144, global = -5.94635e-05, cumulative = -0.00051521
ExecutionTime = 3.74 s  ClockTime = 5 s

Time = 160

smoothSolver:  Solving for Ux, Initial residual = 0.000957969, Final residual = 3.12898e-05, No Iterations 4
smoothSolver:  Solving for Uy, Initial residual = 0.00196272, Final residual = 5.33642e-05, No Iterations 4
GAMG:  Solving for p, Initial residual = 0.0123695, Final residual = 0.00120674, No Iterations 2
time step continuity errors : sum local = 0.000265283, global = -1.43658e-05, cumulative = -0.000529576
ExecutionTime = 3.79 s  ClockTime = 5 s

Time = 161

smoothSolver:  Solving for Ux, Initial residual = 0.000961874, Final residual = 3.12734e-05, No Iterations 4
smoothSolver:  Solving for Uy, Initial residual = 0.00194696, Final residual = 5.50321e-05, No Iterations 4
GAMG:  Solving for p, Initial residual = 0.0124316, Final residual = 0.00120332, No Iterations 2
time step continuity errors : sum local = 0.000266706, global = 4.92414e-05, cumulative = -0.000480335
ExecutionTime = 3.82 s  ClockTime = 5 s

Time = 162

smoothSolver:  Solving for Ux, Initial residual = 0.000967196, Final residual = 3.10469e-05, No Iterations 4
smoothSolver:  Solving for Uy, Initial residual = 0.00195156, Final residual = 5.75099e-05, No Iterations 4
GAMG:  Solving for p, Initial residual = 0.0119901, Final residual = 0.000738233, No Iterations 3
time step continuity errors : sum local = 0.000166166, global = 1.68997e-05, cumulative = -0.000463435
ExecutionTime = 3.85 s  ClockTime = 5 s

Time = 163

smoothSolver:  Solving for Ux, Initial residual = 0.000975669, Final residual = 3.03923e-05, No Iterations 4
smoothSolver:  Solving for Uy, Initial residual = 0.00198137, Final residual = 6.02599e-05, No Iterations 4
GAMG:  Solving for p, Initial residual = 0.0111905, Final residual = 0.000679759, No Iterations 3
time step continuity errors : sum local = 0.000159774, global = 2.73057e-05, cumulative = -0.000436129
ExecutionTime = 3.87 s  ClockTime = 5 s

Time = 164

smoothSolver:  Solving for Ux, Initial residual = 0.000966978, Final residual = 2.90886e-05, No Iterations 4
smoothSolver:  Solving for Uy, Initial residual = 0.00200419, Final residual = 6.1494e-05, No Iterations 4
GAMG:  Solving for p, Initial residual = 0.0105961, Final residual = 0.000985223, No Iterations 2
time step continuity errors : sum local = 0.000238557, global = 8.58735e-05, cumulative = -0.000350256
ExecutionTime = 3.9 s  ClockTime = 5 s

Time = 165

smoothSolver:  Solving for Ux, Initial residual = 0.000953121, Final residual = 2.78168e-05, No Iterations 4
smoothSolver:  Solving for Uy, Initial residual = 0.00200671, Final residual = 6.05864e-05, No Iterations 4
GAMG:  Solving for p, Initial residual = 0.0101098, Final residual = 0.000591542, No Iterations 3
time step continuity errors : sum local = 0.000145382, global = 3.8892e-05, cumulative = -0.000311364
ExecutionTime = 3.92 s  ClockTime = 5 s

Time = 166

smoothSolver:  Solving for Ux, Initial residual = 0.000934712, Final residual = 2.63788e-05, No Iterations 4
smoothSolver:  Solving for Uy, Initial residual = 0.00199986, Final residual = 5.82526e-05, No Iterations 4
GAMG:  Solving for p, Initial residual = 0.0096469, Final residual = 0.000599398, No Iterations 3
time step continuity errors : sum local = 0.000150911, global = 3.91418e-05, cumulative = -0.000272222
ExecutionTime = 3.95 s  ClockTime = 5 s

Time = 167

smoothSolver:  Solving for Ux, Initial residual = 0.000921764, Final residual = 2.55565e-05, No Iterations 4
smoothSolver:  Solving for Uy, Initial residual = 0.00198624, Final residual = 5.5802e-05, No Iterations 4
GAMG:  Solving for p, Initial residual = 0.00909788, Final residual = 0.000589924, No Iterations 3
time step continuity errors : sum local = 0.000152932, global = 3.72345e-05, cumulative = -0.000234988
ExecutionTime = 3.98 s  ClockTime = 5 s

Time = 168

smoothSolver:  Solving for Ux, Initial residual = 0.000909301, Final residual = 2.50392e-05, No Iterations 4
smoothSolver:  Solving for Uy, Initial residual = 0.00197174, Final residual = 5.36646e-05, No Iterations 4
GAMG:  Solving for p, Initial residual = 0.00879818, Final residual = 0.00056734, No Iterations 3
time step continuity errors : sum local = 0.000151524, global = 3.55033e-05, cumulative = -0.000199484
ExecutionTime = 4 s  ClockTime = 5 s

Time = 169

smoothSolver:  Solving for Ux, Initial residual = 0.000893268, Final residual = 2.44463e-05, No Iterations 4
[...]

Time = 459

smoothSolver:  Solving for Ux, Initial residual = 4.29057e-05, Final residual = 1.33171e-06, No Iterations 4
smoothSolver:  Solving for Uy, Initial residual = 7.50561e-05, Final residual = 2.05871e-06, No Iterations 4
GAMG:  Solving for p, Initial residual = 0.000378009, Final residual = 3.4404e-05, No Iterations 2
time step continuity errors : sum local = 9.29556e-06, global = -2.61309e-06, cumulative = -0.000195951
ExecutionTime = 11.16 s  ClockTime = 13 s

Time = 460

smoothSolver:  Solving for Ux, Initial residual = 4.2641e-05, Final residual = 1.34168e-06, No Iterations 4
smoothSolver:  Solving for Uy, Initial residual = 7.34986e-05, Final residual = 2.04942e-06, No Iterations 4
GAMG:  Solving for p, Initial residual = 0.000370048, Final residual = 3.45164e-05, No Iterations 2
time step continuity errors : sum local = 9.33081e-06, global = -7.7415e-07, cumulative = -0.000196725
ExecutionTime = 11.22 s  ClockTime = 13 s

Time = 461

smoothSolver:  Solving for Ux, Initial residual = 4.2536e-05, Final residual = 1.36103e-06, No Iterations 4
smoothSolver:  Solving for Uy, Initial residual = 7.24838e-05, Final residual = 2.05601e-06, No Iterations 4
GAMG:  Solving for p, Initial residual = 0.000369022, Final residual = 3.60306e-05, No Iterations 2
time step continuity errors : sum local = 9.74677e-06, global = 1.35308e-06, cumulative = -0.000195372
ExecutionTime = 11.27 s  ClockTime = 13 s

Time = 462

smoothSolver:  Solving for Ux, Initial residual = 4.26392e-05, Final residual = 1.3812e-06, No Iterations 4
smoothSolver:  Solving for Uy, Initial residual = 7.20169e-05, Final residual = 2.07946e-06, No Iterations 4
GAMG:  Solving for p, Initial residual = 0.000369168, Final residual = 1.95419e-05, No Iterations 3
time step continuity errors : sum local = 5.29096e-06, global = 8.75698e-07, cumulative = -0.000194497
ExecutionTime = 11.29 s  ClockTime = 13 s

Time = 463

smoothSolver:  Solving for Ux, Initial residual = 4.27573e-05, Final residual = 1.3933e-06, No Iterations 4
smoothSolver:  Solving for Uy, Initial residual = 7.19228e-05, Final residual = 2.10826e-06, No Iterations 4
GAMG:  Solving for p, Initial residual = 0.000363874, Final residual = 3.45548e-05, No Iterations 2
time step continuity errors : sum local = 9.37019e-06, global = 2.98811e-06, cumulative = -0.000191509
ExecutionTime = 11.31 s  ClockTime = 13 s

Time = 464

smoothSolver:  Solving for Ux, Initial residual = 4.29832e-05, Final residual = 1.40534e-06, No Iterations 4
smoothSolver:  Solving for Uy, Initial residual = 7.07619e-05, Final residual = 2.11577e-06, No Iterations 4
GAMG:  Solving for p, Initial residual = 0.000358074, Final residual = 2.15612e-05, No Iterations 3
time step continuity errors : sum local = 5.85273e-06, global = 1.27963e-06, cumulative = -0.000190229
ExecutionTime = 11.34 s  ClockTime = 13 s

Time = 465

smoothSolver:  Solving for Ux, Initial residual = 4.33384e-05, Final residual = 1.40985e-06, No Iterations 4
smoothSolver:  Solving for Uy, Initial residual = 6.98525e-05, Final residual = 2.10312e-06, No Iterations 4
GAMG:  Solving for p, Initial residual = 0.000352877, Final residual = 3.31586e-05, No Iterations 2
time step continuity errors : sum local = 9.0125e-06, global = 3.62763e-06, cumulative = -0.000186601
ExecutionTime = 11.36 s  ClockTime = 13 s

Time = 466

smoothSolver:  Solving for Ux, Initial residual = 4.37348e-05, Final residual = 1.42326e-06, No Iterations 4
smoothSolver:  Solving for Uy, Initial residual = 6.90899e-05, Final residual = 2.08506e-06, No Iterations 4
GAMG:  Solving for p, Initial residual = 0.000351802, Final residual = 2.22465e-05, No Iterations 3
time step continuity errors : sum local = 6.05131e-06, global = 1.51945e-06, cumulative = -0.000185082
ExecutionTime = 11.38 s  ClockTime = 14 s

Time = 467

smoothSolver:  Solving for Ux, Initial residual = 4.4549e-05, Final residual = 1.43816e-06, No Iterations 4
smoothSolver:  Solving for Uy, Initial residual = 6.90297e-05, Final residual = 2.07279e-06, No Iterations 4
GAMG:  Solving for p, Initial residual = 0.000344364, Final residual = 2.15189e-05, No Iterations 3
time step continuity errors : sum local = 5.85969e-06, global = 1.56289e-06, cumulative = -0.000183519
ExecutionTime = 11.41 s  ClockTime = 14 s

Time = 468

smoothSolver:  Solving for Ux, Initial residual = 4.53995e-05, Final residual = 1.46229e-06, No Iterations 4
smoothSolver:  Solving for Uy, Initial residual = 6.9443e-05, Final residual = 2.08229e-06, No Iterations 4
GAMG:  Solving for p, Initial residual = 0.000334835, Final residual = 3.30676e-05, No Iterations 2
time step continuity errors : sum local = 9.01235e-06, global = 4.03657e-06, cumulative = -0.000179482
ExecutionTime = 11.42 s  ClockTime = 14 s

Time = 469

smoothSolver:  Solving for Ux, Initial residual = 4.58077e-05, Final residual = 1.47623e-06, No Iterations 4
smoothSolver:  Solving for Uy, Initial residual = 6.96844e-05, Final residual = 2.09257e-06, No Iterations 4
GAMG:  Solving for p, Initial residual = 0.000326795, Final residual = 2.14982e-05, No Iterations 3
time step continuity errors : sum local = 5.86167e-06, global = 1.74967e-06, cumulative = -0.000177733
ExecutionTime = 11.45 s  ClockTime = 14 s

Time = 470

smoothSolver:  Solving for Ux, Initial residual = 4.63694e-05, Final residual = 1.4884e-06, No Iterations 4
smoothSolver:  Solving for Uy, Initial residual = 7.06078e-05, Final residual = 2.11408e-06, No Iterations 4
GAMG:  Solving for p, Initial residual = 0.000317423, Final residual = 1.86892e-05, No Iterations 3
time step continuity errors : sum local = 5.0985e-06, global = 1.70109e-06, cumulative = -0.000176032
ExecutionTime = 11.5 s  ClockTime = 14 s

Time = 471

smoothSolver:  Solving for Ux, Initial residual = 4.66615e-05, Final residual = 1.49121e-06, No Iterations 4
smoothSolver:  Solving for Uy, Initial residual = 7.15576e-05, Final residual = 2.15667e-06, No Iterations 4
GAMG:  Solving for p, Initial residual = 0.00030831, Final residual = 3.02853e-05, No Iterations 2
time step continuity errors : sum local = 8.26439e-06, global = 3.47903e-06, cumulative = -0.000172553
ExecutionTime = 11.53 s  ClockTime = 14 s

Time = 472

smoothSolver:  Solving for Ux, Initial residual = 4.63365e-05, Final residual = 1.47587e-06, No Iterations 4
smoothSolver:  Solving for Uy, Initial residual = 7.27186e-05, Final residual = 2.20652e-06, No Iterations 4
GAMG:  Solving for p, Initial residual = 0.000302041, Final residual = 1.50137e-05, No Iterations 3
time step continuity errors : sum local = 4.09656e-06, global = 1.42652e-06, cumulative = -0.000171126
ExecutionTime = 11.56 s  ClockTime = 14 s

Time = 473

smoothSolver:  Solving for Ux, Initial residual = 4.58008e-05, Final residual = 1.44617e-06, No Iterations 4
smoothSolver:  Solving for Uy, Initial residual = 7.45296e-05, Final residual = 2.27798e-06, No Iterations 4
GAMG:  Solving for p, Initial residual = 0.00029186, Final residual = 2.80025e-05, No Iterations 2
time step continuity errors : sum local = 7.63924e-06, global = 2.37591e-06, cumulative = -0.00016875
ExecutionTime = 11.59 s  ClockTime = 14 s

Time = 474

smoothSolver:  Solving for Ux, Initial residual = 4.48876e-05, Final residual = 1.40549e-06, No Iterations 4
smoothSolver:  Solving for Uy, Initial residual = 7.57353e-05, Final residual = 2.3245e-06, No Iterations 4
GAMG:  Solving for p, Initial residual = 0.000285391, Final residual = 2.82336e-05, No Iterations 2
time step continuity errors : sum local = 7.69926e-06, global = 1.63712e-06, cumulative = -0.000167113
ExecutionTime = 11.62 s  ClockTime = 14 s

Time = 475

smoothSolver:  Solving for Ux, Initial residual = 4.37656e-05, Final residual = 1.35347e-06, No Iterations 4
smoothSolver:  Solving for Uy, Initial residual = 7.64374e-05, Final residual = 2.34684e-06, No Iterations 4
GAMG:  Solving for p, Initial residual = 0.000283292, Final residual = 1.37579e-05, No Iterations 3
time step continuity errors : sum local = 3.74993e-06, global = 2.53576e-09, cumulative = -0.00016711
ExecutionTime = 11.65 s  ClockTime = 14 s

Time = 476

smoothSolver:  Solving for Ux, Initial residual = 4.22618e-05, Final residual = 1.28376e-06, No Iterations 4
smoothSolver:  Solving for Uy, Initial residual = 7.6614e-05, Final residual = 2.35079e-06, No Iterations 4
GAMG:  Solving for p, Initial residual = 0.000274279, Final residual = 1.39371e-05, No Iterations 3
time step continuity errors : sum local = 3.79653e-06, global = -6.71209e-07, cumulative = -0.000167782
ExecutionTime = 11.66 s  ClockTime = 14 s

Time = 477

smoothSolver:  Solving for Ux, Initial residual = 4.05879e-05, Final residual = 1.20874e-06, No Iterations 4
smoothSolver:  Solving for Uy, Initial residual = 7.55965e-05, Final residual = 2.31095e-06, No Iterations 4
GAMG:  Solving for p, Initial residual = 0.000265842, Final residual = 1.50501e-05, No Iterations 3
time step continuity errors : sum local = 4.09663e-06, global = -8.16539e-07, cumulative = -0.000168598
ExecutionTime = 11.69 s  ClockTime = 14 s

Time = 478

smoothSolver:  Solving for Ux, Initial residual = 3.87553e-05, Final residual = 1.13017e-06, No Iterations 4
smoothSolver:  Solving for Uy, Initial residual = 7.33461e-05, Final residual = 2.22332e-06, No Iterations 4
GAMG:  Solving for p, Initial residual = 0.000258957, Final residual = 1.49016e-05, No Iterations 3
time step continuity errors : sum local = 4.05251e-06, global = -8.63591e-07, cumulative = -0.000169462
ExecutionTime = 11.72 s  ClockTime = 14 s

Time = 479

smoothSolver:  Solving for Ux, Initial residual = 3.70385e-05, Final residual = 1.05373e-06, No Iterations 4
smoothSolver:  Solving for Uy, Initial residual = 7.05564e-05, Final residual = 2.10549e-06, No Iterations 4
GAMG:  Solving for p, Initial residual = 0.000253342, Final residual = 1.36808e-05, No Iterations 3
time step continuity errors : sum local = 3.71735e-06, global = -9.45633e-07, cumulative = -0.000170407
ExecutionTime = 11.75 s  ClockTime = 14 s

Time = 480

smoothSolver:  Solving for Ux, Initial residual = 3.5499e-05, Final residual = 9.84999e-07, No Iterations 4
smoothSolver:  Solving for Uy, Initial residual = 6.78034e-05, Final residual = 1.98007e-06, No Iterations 4
GAMG:  Solving for p, Initial residual = 0.000247702, Final residual = 1.34465e-05, No Iterations 3
time step continuity errors : sum local = 3.65118e-06, global = -1.03884e-06, cumulative = -0.000171446
ExecutionTime = 11.8 s  ClockTime = 14 s

Time = 481

smoothSolver:  Solving for Ux, Initial residual = 3.41237e-05, Final residual = 9.25529e-07, No Iterations 4
smoothSolver:  Solving for Uy, Initial residual = 6.48548e-05, Final residual = 1.85326e-06, No Iterations 4
GAMG:  Solving for p, Initial residual = 0.000241154, Final residual = 1.38201e-05, No Iterations 3
time step continuity errors : sum local = 3.75056e-06, global = -1.08367e-06, cumulative = -0.00017253
ExecutionTime = 11.85 s  ClockTime = 14 s

Time = 482

smoothSolver:  Solving for Ux, Initial residual = 3.29793e-05, Final residual = 8.82145e-07, No Iterations 4
smoothSolver:  Solving for Uy, Initial residual = 6.16127e-05, Final residual = 1.72333e-06, No Iterations 4
GAMG:  Solving for p, Initial residual = 0.000232374, Final residual = 1.36561e-05, No Iterations 3
time step continuity errors : sum local = 3.70431e-06, global = -1.08498e-06, cumulative = -0.000173615
ExecutionTime = 11.88 s  ClockTime = 14 s

Time = 483

smoothSolver:  Solving for Ux, Initial residual = 3.20401e-05, Final residual = 8.53961e-07, No Iterations 4
smoothSolver:  Solving for Uy, Initial residual = 5.82981e-05, Final residual = 1.59519e-06, No Iterations 4
GAMG:  Solving for p, Initial residual = 0.000221421, Final residual = 2.18933e-05, No Iterations 2
time step continuity errors : sum local = 5.93629e-06, global = -2.82481e-06, cumulative = -0.00017644
ExecutionTime = 11.9 s  ClockTime = 14 s

Time = 484

smoothSolver:  Solving for Ux, Initial residual = 3.11242e-05, Final residual = 8.30489e-07, No Iterations 4
smoothSolver:  Solving for Uy, Initial residual = 5.49496e-05, Final residual = 1.46542e-06, No Iterations 4
GAMG:  Solving for p, Initial residual = 0.000214034, Final residual = 1.35763e-05, No Iterations 3
time step continuity errors : sum local = 3.68047e-06, global = -1.12634e-06, cumulative = -0.000177566
ExecutionTime = 11.93 s  ClockTime = 14 s

Time = 485

smoothSolver:  Solving for Ux, Initial residual = 3.05407e-05, Final residual = 8.28923e-07, No Iterations 4
smoothSolver:  Solving for Uy, Initial residual = 5.25871e-05, Final residual = 1.36348e-06, No Iterations 4
GAMG:  Solving for p, Initial residual = 0.000203506, Final residual = 1.08718e-05, No Iterations 3
time step continuity errors : sum local = 2.94659e-06, global = -9.87917e-07, cumulative = -0.000178554
ExecutionTime = 11.94 s  ClockTime = 14 s

Time = 486

smoothSolver:  Solving for Ux, Initial residual = 3.00548e-05, Final residual = 8.29702e-07, No Iterations 4
smoothSolver:  Solving for Uy, Initial residual = 5.04783e-05, Final residual = 1.28876e-06, No Iterations 4
GAMG:  Solving for p, Initial residual = 0.000191335, Final residual = 1.68516e-05, No Iterations 2
time step continuity errors : sum local = 4.56703e-06, global = -1.55693e-06, cumulative = -0.000180111
ExecutionTime = 11.97 s  ClockTime = 14 s

Time = 487

smoothSolver:  Solving for Ux, Initial residual = 2.96148e-05, Final residual = 8.26851e-07, No Iterations 4
smoothSolver:  Solving for Uy, Initial residual = 4.82985e-05, Final residual = 1.22573e-06, No Iterations 4
GAMG:  Solving for p, Initial residual = 0.00018323, Final residual = 1.63497e-05, No Iterations 2
time step continuity errors : sum local = 4.43172e-06, global = -5.53309e-07, cumulative = -0.000180664
ExecutionTime = 11.99 s  ClockTime = 14 s

Time = 488

smoothSolver:  Solving for Ux, Initial residual = 2.93062e-05, Final residual = 8.31413e-07, No Iterations 4
smoothSolver:  Solving for Uy, Initial residual = 4.68191e-05, Final residual = 1.18471e-06, No Iterations 4
GAMG:  Solving for p, Initial residual = 0.00017748, Final residual = 1.65225e-05, No Iterations 2
time step continuity errors : sum local = 4.47972e-06, global = 3.86417e-07, cumulative = -0.000180278
ExecutionTime = 12.01 s  ClockTime = 14 s

Time = 489

smoothSolver:  Solving for Ux, Initial residual = 2.91867e-05, Final residual = 8.39942e-07, No Iterations 4
smoothSolver:  Solving for Uy, Initial residual = 4.59017e-05, Final residual = 1.16648e-06, No Iterations 4
GAMG:  Solving for p, Initial residual = 0.000171606, Final residual = 7.82858e-06, No Iterations 3
time step continuity errors : sum local = 2.12331e-06, global = 2.56789e-07, cumulative = -0.000180021
ExecutionTime = 12.03 s  ClockTime = 14 s

Time = 490

smoothSolver:  Solving for Ux, Initial residual = 2.90237e-05, Final residual = 8.43651e-07, No Iterations 4
smoothSolver:  Solving for Uy, Initial residual = 4.533e-05, Final residual = 1.16444e-06, No Iterations 4
GAMG:  Solving for p, Initial residual = 0.000166376, Final residual = 1.38794e-05, No Iterations 2
time step continuity errors : sum local = 3.76687e-06, global = 9.86282e-07, cumulative = -0.000179035
ExecutionTime = 12.08 s  ClockTime = 14 s

Time = 491

smoothSolver:  Solving for Ux, Initial residual = 2.90616e-05, Final residual = 8.57795e-07, No Iterations 4
smoothSolver:  Solving for Uy, Initial residual = 4.43373e-05, Final residual = 1.15546e-06, No Iterations 4
GAMG:  Solving for p, Initial residual = 0.000161732, Final residual = 1.46886e-05, No Iterations 2
time step continuity errors : sum local = 3.9882e-06, global = 1.23262e-06, cumulative = -0.000177802
ExecutionTime = 12.11 s  ClockTime = 14 s

Time = 492

smoothSolver:  Solving for Ux, Initial residual = 2.91968e-05, Final residual = 8.731e-07, No Iterations 4
smoothSolver:  Solving for Uy, Initial residual = 4.35079e-05, Final residual = 1.14469e-06, No Iterations 4
GAMG:  Solving for p, Initial residual = 0.000160639, Final residual = 8.98073e-06, No Iterations 3
time step continuity errors : sum local = 2.43948e-06, global = 5.23624e-07, cumulative = -0.000177279
ExecutionTime = 12.14 s  ClockTime = 14 s

Time = 493

smoothSolver:  Solving for Ux, Initial residual = 2.93794e-05, Final residual = 8.81682e-07, No Iterations 4
smoothSolver:  Solving for Uy, Initial residual = 4.3e-05, Final residual = 1.1335e-06, No Iterations 4
GAMG:  Solving for p, Initial residual = 0.000157224, Final residual = 1.51501e-05, No Iterations 2
time step continuity errors : sum local = 4.11784e-06, global = 1.45152e-06, cumulative = -0.000175827
ExecutionTime = 12.16 s  ClockTime = 14 s

Time = 494

smoothSolver:  Solving for Ux, Initial residual = 2.96913e-05, Final residual = 9.00053e-07, No Iterations 4
smoothSolver:  Solving for Uy, Initial residual = 4.28882e-05, Final residual = 1.1452e-06, No Iterations 4
GAMG:  Solving for p, Initial residual = 0.000154283, Final residual = 9.1486e-06, No Iterations 3
time step continuity errors : sum local = 2.48758e-06, global = 5.83709e-07, cumulative = -0.000175243
ExecutionTime = 12.2 s  ClockTime = 14 s

Time = 495

smoothSolver:  Solving for Ux, Initial residual = 3.0151e-05, Final residual = 9.12554e-07, No Iterations 4
smoothSolver:  Solving for Uy, Initial residual = 4.3236e-05, Final residual = 1.16833e-06, No Iterations 4
GAMG:  Solving for p, Initial residual = 0.000151619, Final residual = 1.46713e-05, No Iterations 2
time step continuity errors : sum local = 3.99128e-06, global = 1.55689e-06, cumulative = -0.000173686
ExecutionTime = 12.21 s  ClockTime = 14 s

Time = 496

smoothSolver:  Solving for Ux, Initial residual = 3.05698e-05, Final residual = 9.27673e-07, No Iterations 4
smoothSolver:  Solving for Uy, Initial residual = 4.35463e-05, Final residual = 1.19998e-06, No Iterations 4
GAMG:  Solving for p, Initial residual = 0.000149471, Final residual = 9.25664e-06, No Iterations 3
time step continuity errors : sum local = 2.51896e-06, global = 6.15351e-07, cumulative = -0.000173071
ExecutionTime = 12.24 s  ClockTime = 14 s

Time = 497

smoothSolver:  Solving for Ux, Initial residual = 3.10872e-05, Final residual = 9.39628e-07, No Iterations 4
smoothSolver:  Solving for Uy, Initial residual = 4.40558e-05, Final residual = 1.23874e-06, No Iterations 4
GAMG:  Solving for p, Initial residual = 0.000146829, Final residual = 1.37465e-05, No Iterations 2
time step continuity errors : sum local = 3.74219e-06, global = 1.56874e-06, cumulative = -0.000171502
ExecutionTime = 12.26 s  ClockTime = 14 s

Time = 498

smoothSolver:  Solving for Ux, Initial residual = 3.14424e-05, Final residual = 9.51752e-07, No Iterations 4
smoothSolver:  Solving for Uy, Initial residual = 4.47557e-05, Final residual = 1.28894e-06, No Iterations 4
GAMG:  Solving for p, Initial residual = 0.000143862, Final residual = 8.45501e-06, No Iterations 3
time step continuity errors : sum local = 2.3021e-06, global = 6.06241e-07, cumulative = -0.000170896
ExecutionTime = 12.28 s  ClockTime = 14 s

Time = 499

smoothSolver:  Solving for Ux, Initial residual = 3.17886e-05, Final residual = 9.59955e-07, No Iterations 4
smoothSolver:  Solving for Uy, Initial residual = 4.60951e-05, Final residual = 1.35094e-06, No Iterations 4
GAMG:  Solving for p, Initial residual = 0.000140487, Final residual = 1.2356e-05, No Iterations 2
time step continuity errors : sum local = 3.36498e-06, global = 1.39338e-06, cumulative = -0.000169503
ExecutionTime = 12.3 s  ClockTime = 14 s

Time = 500

smoothSolver:  Solving for Ux, Initial residual = 3.18992e-05, Final residual = 9.62443e-07, No Iterations 4
smoothSolver:  Solving for Uy, Initial residual = 4.75575e-05, Final residual = 1.40614e-06, No Iterations 4
GAMG:  Solving for p, Initial residual = 0.00013677, Final residual = 1.2668e-05, No Iterations 2
time step continuity errors : sum local = 3.45009e-06, global = 1.34699e-06, cumulative = -0.000168156
ExecutionTime = 12.35 s  ClockTime = 15 s

End

Finalising parallel run
