/*---------------------------------------------------------------------------*\
| =========                 |                                                 |
| \\      /  F ield         | OpenFOAM: The Open Source CFD Toolbox           |
|  \\    /   O peration     | Version:  v1912                                 |
|   \\  /    A nd           | Website:  www.openfoam.com                      |
|    \\/     M anipulation  |                                                 |
\*---------------------------------------------------------------------------*/
Build  : _f3950763fe-20191219 OPENFOAM=1912
Arch   : "LSB;label=32;scalar=64"
Exec   : simpleFoam -parallel
Date   : Nov 16 2020
Time   : 18:58:37
Host   : 53bbc2ec95fa
PID    : 4199
I/O    : uncollated
Case   : /home/hao/OpenFOAM/hao-v1912/diffuser_2d
nProcs : 4
Hosts  :
(
    (53bbc2ec95fa 4)
)
Pstream initialized with:
    floatTransfer      : 0
    nProcsSimpleSum    : 0
    commsType          : nonBlocking
    polling iterations : 0
trapFpe: Floating point exception trapping enabled (FOAM_SIGFPE).
fileModificationChecking : Monitoring run-time modified files using timeStampMaster (fileModificationSkew 10)
allowSystemOperations : Allowing user-supplied system call operations

// * * * * * * * * * * * * * * * * * * * * * * * * * * * * * * * * * * * * * //
Create time

Create mesh for time = 0


SIMPLE: convergence criteria
    field p	 tolerance 1e-05
    field U	 tolerance 1e-05
    field nuTilda	 tolerance 1e-05

Reading field p

Reading field U

Reading/calculating face flux field phi

Selecting incompressible transport model Newtonian
Selecting turbulence model type laminar
Selecting laminar stress model Stokes
No MRF models present

No finite volume options present

Starting time loop

Time = 1

smoothSolver:  Solving for Ux, Initial residual = 1, Final residual = 0.036188, No Iterations 2
smoothSolver:  Solving for Uy, Initial residual = 1, Final residual = 0.0352251, No Iterations 2
GAMG:  Solving for p, Initial residual = 1, Final residual = 0.0542693, No Iterations 8
time step continuity errors : sum local = 0.0179636, global = -0.00491784, cumulative = -0.00491784
ExecutionTime = 0.13 s  ClockTime = 0 s

Time = 2

smoothSolver:  Solving for Ux, Initial residual = 0.522378, Final residual = 0.0163141, No Iterations 4
smoothSolver:  Solving for Uy, Initial residual = 0.329702, Final residual = 0.00832606, No Iterations 4
GAMG:  Solving for p, Initial residual = 0.0511841, Final residual = 0.00504167, No Iterations 4
time step continuity errors : sum local = 0.084592, global = -0.0109924, cumulative = -0.0159103
ExecutionTime = 0.14 s  ClockTime = 0 s

Time = 3

smoothSolver:  Solving for Ux, Initial residual = 0.440748, Final residual = 0.0146074, No Iterations 4
smoothSolver:  Solving for Uy, Initial residual = 0.507695, Final residual = 0.0132493, No Iterations 4
GAMG:  Solving for p, Initial residual = 0.0308641, Final residual = 0.00266095, No Iterations 4
time step continuity errors : sum local = 0.0771855, global = 0.0144954, cumulative = -0.00141486
ExecutionTime = 0.15 s  ClockTime = 0 s

Time = 4

smoothSolver:  Solving for Ux, Initial residual = 0.152724, Final residual = 0.00586978, No Iterations 4
smoothSolver:  Solving for Uy, Initial residual = 0.331603, Final residual = 0.00874982, No Iterations 4
GAMG:  Solving for p, Initial residual = 0.0588867, Final residual = 0.00232135, No Iterations 6
time step continuity errors : sum local = 0.0313066, global = 0.00688599, cumulative = 0.00547114
ExecutionTime = 0.17 s  ClockTime = 0 s

Time = 5

smoothSolver:  Solving for Ux, Initial residual = 0.14592, Final residual = 0.00376464, No Iterations 4
smoothSolver:  Solving for Uy, Initial residual = 0.118722, Final residual = 0.00355119, No Iterations 4
GAMG:  Solving for p, Initial residual = 0.154978, Final residual = 0.00645212, No Iterations 4
time step continuity errors : sum local = 0.0612206, global = 0.00829254, cumulative = 0.0137637
ExecutionTime = 0.2 s  ClockTime = 0 s

Time = 6

smoothSolver:  Solving for Ux, Initial residual = 0.24393, Final residual = 0.00831626, No Iterations 4
smoothSolver:  Solving for Uy, Initial residual = 0.201162, Final residual = 0.00498917, No Iterations 4
GAMG:  Solving for p, Initial residual = 0.0601054, Final residual = 0.00479795, No Iterations 3
time step continuity errors : sum local = 0.076046, global = -0.00880951, cumulative = 0.00495416
ExecutionTime = 0.21 s  ClockTime = 0 s

Time = 7

smoothSolver:  Solving for Ux, Initial residual = 0.137372, Final residual = 0.00584584, No Iterations 4
smoothSolver:  Solving for Uy, Initial residual = 0.686219, Final residual = 0.0195914, No Iterations 4
GAMG:  Solving for p, Initial residual = 0.0905938, Final residual = 0.00640639, No Iterations 4
time step continuity errors : sum local = 0.0643696, global = -0.00769001, cumulative = -0.00273584
ExecutionTime = 0.22 s  ClockTime = 0 s

Time = 8

smoothSolver:  Solving for Ux, Initial residual = 0.061386, Final residual = 0.00135326, No Iterations 4
smoothSolver:  Solving for Uy, Initial residual = 0.577332, Final residual = 0.0191911, No Iterations 4
GAMG:  Solving for p, Initial residual = 0.442752, Final residual = 0.0188866, No Iterations 4
time step continuity errors : sum local = 0.0555947, global = -0.00784091, cumulative = -0.0105768
ExecutionTime = 0.24 s  ClockTime = 0 s

Time = 9

smoothSolver:  Solving for Ux, Initial residual = 0.108033, Final residual = 0.00365162, No Iterations 4
smoothSolver:  Solving for Uy, Initial residual = 0.507178, Final residual = 0.0111319, No Iterations 4
GAMG:  Solving for p, Initial residual = 0.0965506, Final residual = 0.00680507, No Iterations 3
time step continuity errors : sum local = 0.0532848, global = 0.000986899, cumulative = -0.00958985
ExecutionTime = 0.25 s  ClockTime = 0 s

Time = 10

smoothSolver:  Solving for Ux, Initial residual = 0.0782585, Final residual = 0.00311189, No Iterations 4
smoothSolver:  Solving for Uy, Initial residual = 0.352121, Final residual = 0.00961426, No Iterations 4
GAMG:  Solving for p, Initial residual = 0.100915, Final residual = 0.00994173, No Iterations 3
time step continuity errors : sum local = 0.0691472, global = 0.00555185, cumulative = -0.004038
ExecutionTime = 0.29 s  ClockTime = 0 s

Time = 11

smoothSolver:  Solving for Ux, Initial residual = 0.026147, Final residual = 0.00126889, No Iterations 4
smoothSolver:  Solving for Uy, Initial residual = 0.129723, Final residual = 0.00463626, No Iterations 4
GAMG:  Solving for p, Initial residual = 0.319484, Final residual = 0.0129661, No Iterations 4
time step continuity errors : sum local = 0.0367319, global = 0.00552291, cumulative = 0.00148491
ExecutionTime = 0.3 s  ClockTime = 0 s

Time = 12

smoothSolver:  Solving for Ux, Initial residual = 0.0386576, Final residual = 0.00108112, No Iterations 4
smoothSolver:  Solving for Uy, Initial residual = 0.107222, Final residual = 0.00217321, No Iterations 4
GAMG:  Solving for p, Initial residual = 0.161285, Final residual = 0.0125644, No Iterations 3
time step continuity errors : sum local = 0.0452894, global = 0.00522161, cumulative = 0.00670653
ExecutionTime = 0.31 s  ClockTime = 0 s

Time = 13

smoothSolver:  Solving for Ux, Initial residual = 0.05274, Final residual = 0.00198794, No Iterations 4
smoothSolver:  Solving for Uy, Initial residual = 0.246156, Final residual = 0.00693057, No Iterations 4
GAMG:  Solving for p, Initial residual = 0.0984556, Final residual = 0.00793325, No Iterations 3
time step continuity errors : sum local = 0.0394101, global = -0.00180422, cumulative = 0.00490231
ExecutionTime = 0.32 s  ClockTime = 0 s

Time = 14

smoothSolver:  Solving for Ux, Initial residual = 0.0399056, Final residual = 0.00160156, No Iterations 4
smoothSolver:  Solving for Uy, Initial residual = 0.203901, Final residual = 0.00758127, No Iterations 4
GAMG:  Solving for p, Initial residual = 0.143633, Final residual = 0.00625591, No Iterations 4
time step continuity errors : sum local = 0.0242139, global = -0.00305497, cumulative = 0.00184734
ExecutionTime = 0.33 s  ClockTime = 0 s

Time = 15

smoothSolver:  Solving for Ux, Initial residual = 0.0174104, Final residual = 0.000488501, No Iterations 4
smoothSolver:  Solving for Uy, Initial residual = 0.110586, Final residual = 0.00270092, No Iterations 4
GAMG:  Solving for p, Initial residual = 0.671675, Final residual = 0.0532508, No Iterations 3
time step continuity errors : sum local = 0.0334519, global = -0.00463935, cumulative = -0.00279201
ExecutionTime = 0.35 s  ClockTime = 0 s

Time = 16

smoothSolver:  Solving for Ux, Initial residual = 0.0324237, Final residual = 0.0010777, No Iterations 4
smoothSolver:  Solving for Uy, Initial residual = 0.142184, Final residual = 0.00408175, No Iterations 4
GAMG:  Solving for p, Initial residual = 0.126138, Final residual = 0.00716545, No Iterations 3
time step continuity errors : sum local = 0.019369, global = -0.0022299, cumulative = -0.00502191
ExecutionTime = 0.36 s  ClockTime = 0 s

Time = 17

smoothSolver:  Solving for Ux, Initial residual = 0.0321434, Final residual = 0.00122369, No Iterations 4
smoothSolver:  Solving for Uy, Initial residual = 0.0861039, Final residual = 0.00323308, No Iterations 4
GAMG:  Solving for p, Initial residual = 0.122386, Final residual = 0.0105664, No Iterations 3
time step continuity errors : sum local = 0.0288467, global = 0.00206376, cumulative = -0.00295815
ExecutionTime = 0.37 s  ClockTime = 0 s

Time = 18

smoothSolver:  Solving for Ux, Initial residual = 0.014504, Final residual = 0.000644642, No Iterations 4
smoothSolver:  Solving for Uy, Initial residual = 0.0383289, Final residual = 0.00133007, No Iterations 4
GAMG:  Solving for p, Initial residual = 0.273005, Final residual = 0.0223731, No Iterations 3
time step continuity errors : sum local = 0.0235299, global = 0.003411, cumulative = 0.000452849
ExecutionTime = 0.4 s  ClockTime = 0 s

Time = 19

smoothSolver:  Solving for Ux, Initial residual = 0.015343, Final residual = 0.000415537, No Iterations 4
smoothSolver:  Solving for Uy, Initial residual = 0.0577889, Final residual = 0.00160115, No Iterations 4
GAMG:  Solving for p, Initial residual = 0.150109, Final residual = 0.00831044, No Iterations 3
time step continuity errors : sum local = 0.0134545, global = 0.00191305, cumulative = 0.0023659
ExecutionTime = 0.41 s  ClockTime = 0 s

Time = 20

smoothSolver:  Solving for Ux, Initial residual = 0.0225223, Final residual = 0.000794656, No Iterations 4
smoothSolver:  Solving for Uy, Initial residual = 0.0629015, Final residual = 0.0022308, No Iterations 4
GAMG:  Solving for p, Initial residual = 0.0922591, Final residual = 0.00616927, No Iterations 3
time step continuity errors : sum local = 0.0142227, global = -0.000682502, cumulative = 0.0016834
ExecutionTime = 0.46 s  ClockTime = 1 s

Time = 21

smoothSolver:  Solving for Ux, Initial residual = 0.0140827, Final residual = 0.000586155, No Iterations 4
smoothSolver:  Solving for Uy, Initial residual = 0.0382426, Final residual = 0.00138728, No Iterations 4
GAMG:  Solving for p, Initial residual = 0.117524, Final residual = 0.00956639, No Iterations 3
time step continuity errors : sum local = 0.0152831, global = -0.00207412, cumulative = -0.00039072
ExecutionTime = 0.48 s  ClockTime = 1 s

Time = 22

smoothSolver:  Solving for Ux, Initial residual = 0.00801158, Final residual = 0.000240993, No Iterations 4
smoothSolver:  Solving for Uy, Initial residual = 0.0283328, Final residual = 0.000816498, No Iterations 4
GAMG:  Solving for p, Initial residual = 0.646358, Final residual = 0.0384218, No Iterations 3
time step continuity errors : sum local = 0.0107356, global = -0.00181022, cumulative = -0.00220094
ExecutionTime = 0.49 s  ClockTime = 1 s

Time = 23

smoothSolver:  Solving for Ux, Initial residual = 0.0137078, Final residual = 0.000487119, No Iterations 4
smoothSolver:  Solving for Uy, Initial residual = 0.0354084, Final residual = 0.00119539, No Iterations 4
GAMG:  Solving for p, Initial residual = 0.142886, Final residual = 0.0141213, No Iterations 2
time step continuity errors : sum local = 0.0144299, global = -2.2301e-06, cumulative = -0.00220317
ExecutionTime = 0.52 s  ClockTime = 1 s

Time = 24

smoothSolver:  Solving for Ux, Initial residual = 0.0121681, Final residual = 0.000518084, No Iterations 4
smoothSolver:  Solving for Uy, Initial residual = 0.027926, Final residual = 0.00100677, No Iterations 4
GAMG:  Solving for p, Initial residual = 0.129162, Final residual = 0.0101721, No Iterations 3
time step continuity errors : sum local = 0.00945568, global = 0.00105996, cumulative = -0.00114321
ExecutionTime = 0.52 s  ClockTime = 1 s

Time = 25

smoothSolver:  Solving for Ux, Initial residual = 0.00584625, Final residual = 0.000281392, No Iterations 4
smoothSolver:  Solving for Uy, Initial residual = 0.0152161, Final residual = 0.000516508, No Iterations 4
GAMG:  Solving for p, Initial residual = 0.405784, Final residual = 0.026182, No Iterations 3
time step continuity errors : sum local = 0.00812545, global = 0.00127819, cumulative = 0.000134979
ExecutionTime = 0.55 s  ClockTime = 1 s

Time = 26

smoothSolver:  Solving for Ux, Initial residual = 0.00788285, Final residual = 0.000268402, No Iterations 4
smoothSolver:  Solving for Uy, Initial residual = 0.0178074, Final residual = 0.000546103, No Iterations 4
GAMG:  Solving for p, Initial residual = 0.112063, Final residual = 0.0111189, No Iterations 2
time step continuity errors : sum local = 0.0108828, global = 0.00147585, cumulative = 0.00161083
ExecutionTime = 0.56 s  ClockTime = 1 s

Time = 27

smoothSolver:  Solving for Ux, Initial residual = 0.00758026, Final residual = 0.000296246, No Iterations 4
smoothSolver:  Solving for Uy, Initial residual = 0.0210447, Final residual = 0.000686261, No Iterations 4
GAMG:  Solving for p, Initial residual = 0.0804173, Final residual = 0.00495952, No Iterations 3
time step continuity errors : sum local = 0.00507063, global = -0.000309502, cumulative = 0.00130132
ExecutionTime = 0.56 s  ClockTime = 1 s

Time = 28

smoothSolver:  Solving for Ux, Initial residual = 0.00522999, Final residual = 0.000238548, No Iterations 4
smoothSolver:  Solving for Uy, Initial residual = 0.0143, Final residual = 0.000471878, No Iterations 4
GAMG:  Solving for p, Initial residual = 0.112293, Final residual = 0.00722444, No Iterations 3
time step continuity errors : sum local = 0.00536372, global = -0.000665702, cumulative = 0.000635621
ExecutionTime = 0.57 s  ClockTime = 1 s

Time = 29

smoothSolver:  Solving for Ux, Initial residual = 0.00464705, Final residual = 0.000207564, No Iterations 4
smoothSolver:  Solving for Uy, Initial residual = 0.00986018, Final residual = 0.00032017, No Iterations 4
GAMG:  Solving for p, Initial residual = 0.2381, Final residual = 0.0126908, No Iterations 3
time step continuity errors : sum local = 0.00414721, global = -0.000607266, cumulative = 2.83558e-05
ExecutionTime = 0.58 s  ClockTime = 1 s

Time = 30

smoothSolver:  Solving for Ux, Initial residual = 0.00528049, Final residual = 0.000244262, No Iterations 4
smoothSolver:  Solving for Uy, Initial residual = 0.0130667, Final residual = 0.000406353, No Iterations 4
GAMG:  Solving for p, Initial residual = 0.285973, Final residual = 0.0128987, No Iterations 3
time step continuity errors : sum local = 0.00258656, global = 2.34185e-05, cumulative = 5.17742e-05
ExecutionTime = 0.61 s  ClockTime = 1 s

Time = 31

smoothSolver:  Solving for Ux, Initial residual = 0.00477721, Final residual = 0.000247302, No Iterations 4
smoothSolver:  Solving for Uy, Initial residual = 0.0111266, Final residual = 0.000365883, No Iterations 4
GAMG:  Solving for p, Initial residual = 0.339163, Final residual = 0.0210501, No Iterations 3
time step continuity errors : sum local = 0.00323728, global = 0.000358371, cumulative = 0.000410145
ExecutionTime = 0.63 s  ClockTime = 1 s

Time = 32

smoothSolver:  Solving for Ux, Initial residual = 0.00369954, Final residual = 0.000212966, No Iterations 4
smoothSolver:  Solving for Uy, Initial residual = 0.00644418, Final residual = 0.000203085, No Iterations 4
GAMG:  Solving for p, Initial residual = 0.144702, Final residual = 0.00860324, No Iterations 3
time step continuity errors : sum local = 0.00312261, global = 0.000481471, cumulative = 0.000891616
ExecutionTime = 0.64 s  ClockTime = 1 s

Time = 33

smoothSolver:  Solving for Ux, Initial residual = 0.00366412, Final residual = 0.000205772, No Iterations 4
smoothSolver:  Solving for Uy, Initial residual = 0.00730054, Final residual = 0.000217733, No Iterations 4
GAMG:  Solving for p, Initial residual = 0.075339, Final residual = 0.00358065, No Iterations 3
time step continuity errors : sum local = 0.0020154, global = 0.00030773, cumulative = 0.00119935
ExecutionTime = 0.65 s  ClockTime = 1 s

Time = 34

smoothSolver:  Solving for Ux, Initial residual = 0.00372518, Final residual = 0.000207301, No Iterations 4
smoothSolver:  Solving for Uy, Initial residual = 0.00802989, Final residual = 0.000264456, No Iterations 4
GAMG:  Solving for p, Initial residual = 0.0561773, Final residual = 0.00311162, No Iterations 3
time step continuity errors : sum local = 0.00190348, global = -0.000149248, cumulative = 0.0010501
ExecutionTime = 0.67 s  ClockTime = 1 s

Time = 35

smoothSolver:  Solving for Ux, Initial residual = 0.00330159, Final residual = 0.000197226, No Iterations 4
smoothSolver:  Solving for Uy, Initial residual = 0.00601974, Final residual = 0.000228071, No Iterations 4
GAMG:  Solving for p, Initial residual = 0.0642195, Final residual = 0.00400354, No Iterations 3
time step continuity errors : sum local = 0.0021208, global = -0.000270801, cumulative = 0.000779298
ExecutionTime = 0.68 s  ClockTime = 1 s

Time = 36

smoothSolver:  Solving for Ux, Initial residual = 0.00296988, Final residual = 0.000190203, No Iterations 4
smoothSolver:  Solving for Uy, Initial residual = 0.00461008, Final residual = 0.00018118, No Iterations 4
GAMG:  Solving for p, Initial residual = 0.0785452, Final residual = 0.0042553, No Iterations 3
time step continuity errors : sum local = 0.00164487, global = -0.000248353, cumulative = 0.000530944
ExecutionTime = 0.7 s  ClockTime = 1 s

Time = 37

smoothSolver:  Solving for Ux, Initial residual = 0.00303696, Final residual = 0.000193516, No Iterations 4
smoothSolver:  Solving for Uy, Initial residual = 0.00509554, Final residual = 0.000182006, No Iterations 4
GAMG:  Solving for p, Initial residual = 0.0810291, Final residual = 0.00393341, No Iterations 3
time step continuity errors : sum local = 0.00117427, global = 1.99462e-05, cumulative = 0.000550891
ExecutionTime = 0.72 s  ClockTime = 1 s

Time = 38

smoothSolver:  Solving for Ux, Initial residual = 0.00294931, Final residual = 0.000191969, No Iterations 4
smoothSolver:  Solving for Uy, Initial residual = 0.00458909, Final residual = 0.000165363, No Iterations 4
GAMG:  Solving for p, Initial residual = 0.0724352, Final residual = 0.00437673, No Iterations 3
time step continuity errors : sum local = 0.001315, global = 0.000169262, cumulative = 0.000720153
ExecutionTime = 0.74 s  ClockTime = 1 s

Time = 39

smoothSolver:  Solving for Ux, Initial residual = 0.00266434, Final residual = 0.000184975, No Iterations 4
smoothSolver:  Solving for Uy, Initial residual = 0.00341542, Final residual = 0.000137161, No Iterations 4
GAMG:  Solving for p, Initial residual = 0.055548, Final residual = 0.00340006, No Iterations 3
time step continuity errors : sum local = 0.00129353, global = 0.000215472, cumulative = 0.000935625
ExecutionTime = 0.76 s  ClockTime = 1 s

Time = 40

smoothSolver:  Solving for Ux, Initial residual = 0.00260123, Final residual = 0.000181779, No Iterations 4
smoothSolver:  Solving for Uy, Initial residual = 0.00348215, Final residual = 0.000161428, No Iterations 4
GAMG:  Solving for p, Initial residual = 0.0392354, Final residual = 0.00201384, No Iterations 3
time step continuity errors : sum local = 0.000925854, global = 0.00013329, cumulative = 0.00106892
ExecutionTime = 0.8 s  ClockTime = 1 s

Time = 41

smoothSolver:  Solving for Ux, Initial residual = 0.00259208, Final residual = 0.00017887, No Iterations 4
smoothSolver:  Solving for Uy, Initial residual = 0.00384784, Final residual = 0.000187908, No Iterations 4
GAMG:  Solving for p, Initial residual = 0.0310733, Final residual = 0.00166555, No Iterations 3
time step continuity errors : sum local = 0.000807302, global = -6.81659e-05, cumulative = 0.00100075
ExecutionTime = 0.82 s  ClockTime = 1 s

Time = 42

smoothSolver:  Solving for Ux, Initial residual = 0.00245192, Final residual = 0.000172706, No Iterations 4
smoothSolver:  Solving for Uy, Initial residual = 0.00345113, Final residual = 0.000184431, No Iterations 4
GAMG:  Solving for p, Initial residual = 0.0311237, Final residual = 0.00191083, No Iterations 3
time step continuity errors : sum local = 0.00088106, global = -0.000114689, cumulative = 0.00088606
ExecutionTime = 0.85 s  ClockTime = 1 s

Time = 43

smoothSolver:  Solving for Ux, Initial residual = 0.00230095, Final residual = 0.000166479, No Iterations 4
smoothSolver:  Solving for Uy, Initial residual = 0.00285148, Final residual = 0.000163976, No Iterations 4
GAMG:  Solving for p, Initial residual = 0.0322345, Final residual = 0.00185789, No Iterations 3
time step continuity errors : sum local = 0.000758773, global = -0.000104678, cumulative = 0.000781382
ExecutionTime = 0.86 s  ClockTime = 1 s

Time = 44

smoothSolver:  Solving for Ux, Initial residual = 0.00226862, Final residual = 0.000163779, No Iterations 4
smoothSolver:  Solving for Uy, Initial residual = 0.00270873, Final residual = 0.000151333, No Iterations 4
GAMG:  Solving for p, Initial residual = 0.0294102, Final residual = 0.00287151, No Iterations 2
time step continuity errors : sum local = 0.00107199, global = 3.51952e-05, cumulative = 0.000816577
ExecutionTime = 0.87 s  ClockTime = 1 s

Time = 45

smoothSolver:  Solving for Ux, Initial residual = 0.00220609, Final residual = 0.000161079, No Iterations 4
smoothSolver:  Solving for Uy, Initial residual = 0.00257862, Final residual = 0.000146785, No Iterations 4
GAMG:  Solving for p, Initial residual = 0.0264814, Final residual = 0.00156226, No Iterations 3
time step continuity errors : sum local = 0.000581815, global = 9.40202e-05, cumulative = 0.000910597
ExecutionTime = 0.88 s  ClockTime = 1 s

Time = 46

smoothSolver:  Solving for Ux, Initial residual = 0.0021431, Final residual = 0.000157715, No Iterations 4
smoothSolver:  Solving for Uy, Initial residual = 0.00231224, Final residual = 0.000148341, No Iterations 4
GAMG:  Solving for p, Initial residual = 0.0235598, Final residual = 0.00160894, No Iterations 3
time step continuity errors : sum local = 0.000636171, global = 0.000104287, cumulative = 0.00101488
ExecutionTime = 0.9 s  ClockTime = 1 s

Time = 47

smoothSolver:  Solving for Ux, Initial residual = 0.00208573, Final residual = 0.000153604, No Iterations 4
smoothSolver:  Solving for Uy, Initial residual = 0.00233348, Final residual = 0.000160402, No Iterations 4
GAMG:  Solving for p, Initial residual = 0.0196595, Final residual = 0.00119133, No Iterations 3
time step continuity errors : sum local = 0.000506891, global = 7.72221e-05, cumulative = 0.00109211
ExecutionTime = 0.91 s  ClockTime = 1 s

Time = 48

smoothSolver:  Solving for Ux, Initial residual = 0.00203264, Final residual = 0.000148811, No Iterations 4
smoothSolver:  Solving for Uy, Initial residual = 0.00245734, Final residual = 0.000170756, No Iterations 4
GAMG:  Solving for p, Initial residual = 0.0165013, Final residual = 0.000854506, No Iterations 3
time step continuity errors : sum local = 0.00037584, global = -1.05503e-05, cumulative = 0.00108156
ExecutionTime = 0.93 s  ClockTime = 1 s

Time = 49

smoothSolver:  Solving for Ux, Initial residual = 0.00197386, Final residual = 0.000143279, No Iterations 4
smoothSolver:  Solving for Uy, Initial residual = 0.00235494, Final residual = 0.000168956, No Iterations 4
GAMG:  Solving for p, Initial residual = 0.0151492, Final residual = 0.000878685, No Iterations 3
time step continuity errors : sum local = 0.000383845, global = -4.5036e-05, cumulative = 0.00103652
ExecutionTime = 0.95 s  ClockTime = 1 s

Time = 50

smoothSolver:  Solving for Ux, Initial residual = 0.00190924, Final residual = 0.000137918, No Iterations 4
smoothSolver:  Solving for Uy, Initial residual = 0.002151, Final residual = 0.000158927, No Iterations 4
GAMG:  Solving for p, Initial residual = 0.014429, Final residual = 0.000904096, No Iterations 3
time step continuity errors : sum local = 0.000379337, global = -5.1325e-05, cumulative = 0.000985194
ExecutionTime = 0.99 s  ClockTime = 1 s

Time = 51

smoothSolver:  Solving for Ux, Initial residual = 0.00185977, Final residual = 0.000133516, No Iterations 4
smoothSolver:  Solving for Uy, Initial residual = 0.00199386, Final residual = 0.000147715, No Iterations 4
GAMG:  Solving for p, Initial residual = 0.0134783, Final residual = 0.000726478, No Iterations 3
time step continuity errors : sum local = 0.000293633, global = -1.7696e-05, cumulative = 0.000967498
ExecutionTime = 1.03 s  ClockTime = 1 s

Time = 52

smoothSolver:  Solving for Ux, Initial residual = 0.00181904, Final residual = 0.000129693, No Iterations 4
smoothSolver:  Solving for Uy, Initial residual = 0.00189191, Final residual = 0.000140893, No Iterations 4
GAMG:  Solving for p, Initial residual = 0.0123384, Final residual = 0.00118583, No Iterations 2
time step continuity errors : sum local = 0.000473205, global = 0.000108458, cumulative = 0.00107596
ExecutionTime = 1.04 s  ClockTime = 1 s

Time = 53

smoothSolver:  Solving for Ux, Initial residual = 0.00176776, Final residual = 0.000125552, No Iterations 4
smoothSolver:  Solving for Uy, Initial residual = 0.00182975, Final residual = 0.00014049, No Iterations 4
GAMG:  Solving for p, Initial residual = 0.0115859, Final residual = 0.000785388, No Iterations 3
time step continuity errors : sum local = 0.000315239, global = 6.49017e-05, cumulative = 0.00114086
ExecutionTime = 1.06 s  ClockTime = 1 s

Time = 54

smoothSolver:  Solving for Ux, Initial residual = 0.00171736, Final residual = 0.00012123, No Iterations 4
smoothSolver:  Solving for Uy, Initial residual = 0.00183272, Final residual = 0.000146042, No Iterations 4
GAMG:  Solving for p, Initial residual = 0.0104359, Final residual = 0.000718589, No Iterations 3
time step continuity errors : sum local = 0.000297763, global = 5.34133e-05, cumulative = 0.00119427
ExecutionTime = 1.09 s  ClockTime = 1 s

Time = 55

smoothSolver:  Solving for Ux, Initial residual = 0.00167675, Final residual = 0.000116698, No Iterations 4
smoothSolver:  Solving for Uy, Initial residual = 0.00184862, Final residual = 0.000150445, No Iterations 4
GAMG:  Solving for p, Initial residual = 0.00913813, Final residual = 0.000462058, No Iterations 3
time step continuity errors : sum local = 0.000195861, global = 2.0773e-05, cumulative = 0.00121504
ExecutionTime = 1.11 s  ClockTime = 1 s

Time = 56

smoothSolver:  Solving for Ux, Initial residual = 0.00163131, Final residual = 0.000111578, No Iterations 4
smoothSolver:  Solving for Uy, Initial residual = 0.00185129, Final residual = 0.000149526, No Iterations 4
GAMG:  Solving for p, Initial residual = 0.00816512, Final residual = 0.000390557, No Iterations 3
time step continuity errors : sum local = 0.000165897, global = -1.04288e-05, cumulative = 0.00120462
ExecutionTime = 1.12 s  ClockTime = 1 s

Time = 57

smoothSolver:  Solving for Ux, Initial residual = 0.00159158, Final residual = 0.000106514, No Iterations 4
smoothSolver:  Solving for Uy, Initial residual = 0.00179654, Final residual = 0.000143351, No Iterations 4
GAMG:  Solving for p, Initial residual = 0.00768025, Final residual = 0.000432411, No Iterations 3
time step continuity errors : sum local = 0.000180956, global = -2.0273e-05, cumulative = 0.00118434
ExecutionTime = 1.14 s  ClockTime = 1 s

Time = 58

smoothSolver:  Solving for Ux, Initial residual = 0.00155467, Final residual = 0.000101788, No Iterations 4
smoothSolver:  Solving for Uy, Initial residual = 0.00172423, Final residual = 0.000135378, No Iterations 4
GAMG:  Solving for p, Initial residual = 0.007404, Final residual = 0.000407756, No Iterations 3
time step continuity errors : sum local = 0.00016727, global = -1.21828e-05, cumulative = 0.00117216
ExecutionTime = 1.15 s  ClockTime = 1 s

Time = 59

smoothSolver:  Solving for Ux, Initial residual = 0.00151685, Final residual = 9.74802e-05, No Iterations 4
smoothSolver:  Solving for Uy, Initial residual = 0.00167152, Final residual = 0.000129278, No Iterations 4
GAMG:  Solving for p, Initial residual = 0.00714783, Final residual = 0.000360021, No Iterations 3
time step continuity errors : sum local = 0.000145811, global = 1.27517e-05, cumulative = 0.00118491
ExecutionTime = 1.18 s  ClockTime = 1 s

Time = 60

smoothSolver:  Solving for Ux, Initial residual = 0.00147614, Final residual = 9.34339e-05, No Iterations 4
smoothSolver:  Solving for Uy, Initial residual = 0.0016423, Final residual = 0.000126882, No Iterations 4
GAMG:  Solving for p, Initial residual = 0.00683787, Final residual = 0.000361696, No Iterations 3
time step continuity errors : sum local = 0.000146387, global = 3.77065e-05, cumulative = 0.00122262
ExecutionTime = 1.23 s  ClockTime = 1 s

Time = 61

smoothSolver:  Solving for Ux, Initial residual = 0.00143666, Final residual = 8.94187e-05, No Iterations 4
smoothSolver:  Solving for Uy, Initial residual = 0.00161929, Final residual = 0.000127344, No Iterations 4
GAMG:  Solving for p, Initial residual = 0.00638816, Final residual = 0.000348395, No Iterations 3
time step continuity errors : sum local = 0.000141543, global = 3.77741e-05, cumulative = 0.00126039
ExecutionTime = 1.25 s  ClockTime = 1 s

Time = 62

smoothSolver:  Solving for Ux, Initial residual = 0.00139737, Final residual = 8.53126e-05, No Iterations 4
smoothSolver:  Solving for Uy, Initial residual = 0.0016147, Final residual = 0.000128755, No Iterations 4
GAMG:  Solving for p, Initial residual = 0.00578893, Final residual = 0.000302078, No Iterations 3
time step continuity errors : sum local = 0.000123293, global = 1.48364e-05, cumulative = 0.00127523
ExecutionTime = 1.27 s  ClockTime = 1 s

Time = 63

smoothSolver:  Solving for Ux, Initial residual = 0.00135857, Final residual = 8.10124e-05, No Iterations 4
smoothSolver:  Solving for Uy, Initial residual = 0.00161685, Final residual = 0.000128799, No Iterations 4
GAMG:  Solving for p, Initial residual = 0.0053904, Final residual = 0.000268751, No Iterations 3
time step continuity errors : sum local = 0.00010991, global = -2.97331e-06, cumulative = 0.00127226
ExecutionTime = 1.29 s  ClockTime = 1 s

Time = 64

smoothSolver:  Solving for Ux, Initial residual = 0.00132423, Final residual = 7.66708e-05, No Iterations 4
smoothSolver:  Solving for Uy, Initial residual = 0.00161158, Final residual = 0.000126063, No Iterations 4
GAMG:  Solving for p, Initial residual = 0.0052596, Final residual = 0.000302595, No Iterations 3
time step continuity errors : sum local = 0.000122972, global = -1.4698e-05, cumulative = 0.00125756
ExecutionTime = 1.31 s  ClockTime = 1 s

Time = 65

smoothSolver:  Solving for Ux, Initial residual = 0.00129157, Final residual = 7.24303e-05, No Iterations 4
smoothSolver:  Solving for Uy, Initial residual = 0.00159442, Final residual = 0.000121431, No Iterations 4
GAMG:  Solving for p, Initial residual = 0.00526849, Final residual = 0.000335772, No Iterations 3
time step continuity errors : sum local = 0.000134846, global = -1.87564e-05, cumulative = 0.0012388
ExecutionTime = 1.32 s  ClockTime = 1 s

Time = 66

smoothSolver:  Solving for Ux, Initial residual = 0.0012614, Final residual = 6.8477e-05, No Iterations 4
smoothSolver:  Solving for Uy, Initial residual = 0.00157746, Final residual = 0.000116789, No Iterations 4
GAMG:  Solving for p, Initial residual = 0.00526792, Final residual = 0.000355874, No Iterations 3
time step continuity errors : sum local = 0.000141183, global = -1.90031e-05, cumulative = 0.0012198
ExecutionTime = 1.34 s  ClockTime = 1 s

Time = 67

smoothSolver:  Solving for Ux, Initial residual = 0.00123016, Final residual = 6.47385e-05, No Iterations 4
smoothSolver:  Solving for Uy, Initial residual = 0.00157274, Final residual = 0.000113468, No Iterations 4
GAMG:  Solving for p, Initial residual = 0.00511314, Final residual = 0.000341462, No Iterations 3
time step continuity errors : sum local = 0.000134319, global = -1.82907e-05, cumulative = 0.00120151
ExecutionTime = 1.36 s  ClockTime = 1 s

Time = 68

smoothSolver:  Solving for Ux, Initial residual = 0.00119593, Final residual = 6.10654e-05, No Iterations 4
smoothSolver:  Solving for Uy, Initial residual = 0.00157244, Final residual = 0.000111134, No Iterations 4
GAMG:  Solving for p, Initial residual = 0.00487336, Final residual = 0.000329113, No Iterations 3
time step continuity errors : sum local = 0.000128768, global = -1.93116e-05, cumulative = 0.0011822
ExecutionTime = 1.38 s  ClockTime = 1 s

Time = 69

smoothSolver:  Solving for Ux, Initial residual = 0.00116092, Final residual = 5.74126e-05, No Iterations 4
smoothSolver:  Solving for Uy, Initial residual = 0.00156695, Final residual = 0.000108834, No Iterations 4
GAMG:  Solving for p, Initial residual = 0.00464711, Final residual = 0.00033772, No Iterations 3
time step continuity errors : sum local = 0.00013144, global = -2.29437e-05, cumulative = 0.00115925
ExecutionTime = 1.4 s  ClockTime = 2 s

Time = 70

smoothSolver:  Solving for Ux, Initial residual = 0.00112638, Final residual = 5.37458e-05, No Iterations 4
smoothSolver:  Solving for Uy, Initial residual = 0.00156009, Final residual = 0.000105761, No Iterations 4
GAMG:  Solving for p, Initial residual = 0.00461179, Final residual = 0.000369733, No Iterations 3
time step continuity errors : sum local = 0.000142806, global = -2.74868e-05, cumulative = 0.00113176
ExecutionTime = 1.44 s  ClockTime = 2 s

Time = 71

smoothSolver:  Solving for Ux, Initial residual = 0.00109287, Final residual = 5.01142e-05, No Iterations 4
smoothSolver:  Solving for Uy, Initial residual = 0.00155522, Final residual = 0.000101369, No Iterations 4
GAMG:  Solving for p, Initial residual = 0.00471326, Final residual = 0.000409892, No Iterations 3
time step continuity errors : sum local = 0.000156613, global = -3.11567e-05, cumulative = 0.00110061
ExecutionTime = 1.44 s  ClockTime = 2 s

Time = 72

smoothSolver:  Solving for Ux, Initial residual = 0.00105992, Final residual = 4.65875e-05, No Iterations 4
smoothSolver:  Solving for Uy, Initial residual = 0.00155556, Final residual = 9.60322e-05, No Iterations 4
GAMG:  Solving for p, Initial residual = 0.00476304, Final residual = 0.000450427, No Iterations 3
time step continuity errors : sum local = 0.000169816, global = -3.38954e-05, cumulative = 0.00106671
ExecutionTime = 1.46 s  ClockTime = 2 s

Time = 73

smoothSolver:  Solving for Ux, Initial residual = 0.00102649, Final residual = 4.31717e-05, No Iterations 4
smoothSolver:  Solving for Uy, Initial residual = 0.00156414, Final residual = 9.07251e-05, No Iterations 4
GAMG:  Solving for p, Initial residual = 0.00472474, Final residual = 0.000273878, No Iterations 4
time step continuity errors : sum local = 0.000101751, global = -1.89277e-05, cumulative = 0.00104778
ExecutionTime = 1.48 s  ClockTime = 2 s

Time = 74

smoothSolver:  Solving for Ux, Initial residual = 0.000993975, Final residual = 3.98026e-05, No Iterations 4
smoothSolver:  Solving for Uy, Initial residual = 0.0015805, Final residual = 8.59317e-05, No Iterations 4
GAMG:  Solving for p, Initial residual = 0.0046555, Final residual = 0.000460032, No Iterations 3
time step continuity errors : sum local = 0.000167899, global = -3.67431e-05, cumulative = 0.00101104
ExecutionTime = 1.5 s  ClockTime = 2 s

Time = 75

smoothSolver:  Solving for Ux, Initial residual = 0.000957988, Final residual = 3.67314e-05, No Iterations 4
smoothSolver:  Solving for Uy, Initial residual = 0.00158692, Final residual = 8.08069e-05, No Iterations 4
GAMG:  Solving for p, Initial residual = 0.00453659, Final residual = 0.000262545, No Iterations 4
time step continuity errors : sum local = 9.45617e-05, global = -2.09781e-05, cumulative = 0.000990064
ExecutionTime = 1.52 s  ClockTime = 2 s

Time = 76

smoothSolver:  Solving for Ux, Initial residual = 0.000923703, Final residual = 3.37411e-05, No Iterations 4
smoothSolver:  Solving for Uy, Initial residual = 0.001594, Final residual = 7.58686e-05, No Iterations 4
GAMG:  Solving for p, Initial residual = 0.00455235, Final residual = 0.000271181, No Iterations 4
time step continuity errors : sum local = 9.58822e-05, global = -2.23313e-05, cumulative = 0.000967732
ExecutionTime = 1.54 s  ClockTime = 2 s

Time = 77

smoothSolver:  Solving for Ux, Initial residual = 0.000888719, Final residual = 3.09399e-05, No Iterations 4
smoothSolver:  Solving for Uy, Initial residual = 0.00159681, Final residual = 7.07279e-05, No Iterations 4
GAMG:  Solving for p, Initial residual = 0.00463939, Final residual = 0.000278903, No Iterations 4
time step continuity errors : sum local = 9.67334e-05, global = -2.35895e-05, cumulative = 0.000944143
ExecutionTime = 1.56 s  ClockTime = 2 s

Time = 78

smoothSolver:  Solving for Ux, Initial residual = 0.000852863, Final residual = 2.83043e-05, No Iterations 4
smoothSolver:  Solving for Uy, Initial residual = 0.00159858, Final residual = 6.56661e-05, No Iterations 4
GAMG:  Solving for p, Initial residual = 0.00472865, Final residual = 0.000287564, No Iterations 4
time step continuity errors : sum local = 9.76618e-05, global = -2.49163e-05, cumulative = 0.000919227
ExecutionTime = 1.57 s  ClockTime = 2 s

Time = 79

smoothSolver:  Solving for Ux, Initial residual = 0.000816444, Final residual = 2.58512e-05, No Iterations 4
smoothSolver:  Solving for Uy, Initial residual = 0.0016023, Final residual = 6.11556e-05, No Iterations 4
GAMG:  Solving for p, Initial residual = 0.00476602, Final residual = 0.000291846, No Iterations 4
time step continuity errors : sum local = 9.70461e-05, global = -2.59807e-05, cumulative = 0.000893246
ExecutionTime = 1.58 s  ClockTime = 2 s

Time = 80

smoothSolver:  Solving for Ux, Initial residual = 0.000780235, Final residual = 2.35602e-05, No Iterations 4
smoothSolver:  Solving for Uy, Initial residual = 0.00160409, Final residual = 5.73691e-05, No Iterations 4
GAMG:  Solving for p, Initial residual = 0.00476594, Final residual = 0.000292588, No Iterations 4
time step continuity errors : sum local = 9.52121e-05, global = -2.66146e-05, cumulative = 0.000866631
ExecutionTime = 1.62 s  ClockTime = 2 s

Time = 81

smoothSolver:  Solving for Ux, Initial residual = 0.000744326, Final residual = 2.14559e-05, No Iterations 4
smoothSolver:  Solving for Uy, Initial residual = 0.00159945, Final residual = 5.41881e-05, No Iterations 4
GAMG:  Solving for p, Initial residual = 0.00477384, Final residual = 0.000290672, No Iterations 4
time step continuity errors : sum local = 9.25698e-05, global = -2.68665e-05, cumulative = 0.000839765
ExecutionTime = 1.64 s  ClockTime = 2 s

Time = 82

smoothSolver:  Solving for Ux, Initial residual = 0.000708905, Final residual = 1.95768e-05, No Iterations 4
smoothSolver:  Solving for Uy, Initial residual = 0.00158588, Final residual = 5.16105e-05, No Iterations 4
GAMG:  Solving for p, Initial residual = 0.00479207, Final residual = 0.000284195, No Iterations 4
time step continuity errors : sum local = 8.86448e-05, global = -2.65541e-05, cumulative = 0.000813211
ExecutionTime = 1.65 s  ClockTime = 2 s

Time = 83

smoothSolver:  Solving for Ux, Initial residual = 0.000673805, Final residual = 1.7972e-05, No Iterations 4
smoothSolver:  Solving for Uy, Initial residual = 0.00156293, Final residual = 4.96162e-05, No Iterations 4
GAMG:  Solving for p, Initial residual = 0.0048268, Final residual = 0.000478724, No Iterations 3
time step continuity errors : sum local = 0.000146402, global = -5.61097e-05, cumulative = 0.000757101
ExecutionTime = 1.66 s  ClockTime = 2 s

Time = 84

smoothSolver:  Solving for Ux, Initial residual = 0.000638218, Final residual = 1.66748e-05, No Iterations 4
smoothSolver:  Solving for Uy, Initial residual = 0.00152507, Final residual = 4.77425e-05, No Iterations 4
GAMG:  Solving for p, Initial residual = 0.00483614, Final residual = 0.000279155, No Iterations 4
time step continuity errors : sum local = 8.40553e-05, global = -2.48874e-05, cumulative = 0.000732214
ExecutionTime = 1.67 s  ClockTime = 2 s

Time = 85

smoothSolver:  Solving for Ux, Initial residual = 0.00060633, Final residual = 1.55805e-05, No Iterations 4
smoothSolver:  Solving for Uy, Initial residual = 0.00148895, Final residual = 4.67973e-05, No Iterations 4
GAMG:  Solving for p, Initial residual = 0.00485908, Final residual = 0.000451451, No Iterations 3
time step continuity errors : sum local = 0.000133156, global = -5.09155e-05, cumulative = 0.000681298
ExecutionTime = 1.68 s  ClockTime = 2 s

Time = 86

smoothSolver:  Solving for Ux, Initial residual = 0.000573369, Final residual = 1.4754e-05, No Iterations 4
smoothSolver:  Solving for Uy, Initial residual = 0.00143886, Final residual = 4.5545e-05, No Iterations 4
GAMG:  Solving for p, Initial residual = 0.00479261, Final residual = 0.000430682, No Iterations 3
time step continuity errors : sum local = 0.000125345, global = -4.56334e-05, cumulative = 0.000635665
ExecutionTime = 1.69 s  ClockTime = 2 s

Time = 87

smoothSolver:  Solving for Ux, Initial residual = 0.000541752, Final residual = 1.40887e-05, No Iterations 4
smoothSolver:  Solving for Uy, Initial residual = 0.0013836, Final residual = 4.42431e-05, No Iterations 4
GAMG:  Solving for p, Initial residual = 0.00470163, Final residual = 0.000410293, No Iterations 3
time step continuity errors : sum local = 0.000118042, global = -3.85531e-05, cumulative = 0.000597112
ExecutionTime = 1.71 s  ClockTime = 2 s

Time = 88

smoothSolver:  Solving for Ux, Initial residual = 0.000511402, Final residual = 1.35566e-05, No Iterations 4
smoothSolver:  Solving for Uy, Initial residual = 0.00132308, Final residual = 4.28107e-05, No Iterations 4
GAMG:  Solving for p, Initial residual = 0.00456577, Final residual = 0.000388629, No Iterations 3
time step continuity errors : sum local = 0.000110798, global = -2.89123e-05, cumulative = 0.000568199
ExecutionTime = 1.72 s  ClockTime = 2 s

Time = 89

smoothSolver:  Solving for Ux, Initial residual = 0.000481635, Final residual = 1.30678e-05, No Iterations 4
smoothSolver:  Solving for Uy, Initial residual = 0.00125808, Final residual = 4.12335e-05, No Iterations 4
GAMG:  Solving for p, Initial residual = 0.0043786, Final residual = 0.000372748, No Iterations 3
time step continuity errors : sum local = 0.000105649, global = -1.69105e-05, cumulative = 0.000551289
ExecutionTime = 1.73 s  ClockTime = 2 s

Time = 90

smoothSolver:  Solving for Ux, Initial residual = 0.000452269, Final residual = 1.26039e-05, No Iterations 4
smoothSolver:  Solving for Uy, Initial residual = 0.00119018, Final residual = 3.95723e-05, No Iterations 4
GAMG:  Solving for p, Initial residual = 0.00415529, Final residual = 0.000359765, No Iterations 3
time step continuity errors : sum local = 0.000101728, global = -2.96887e-06, cumulative = 0.00054832
ExecutionTime = 1.76 s  ClockTime = 2 s

Time = 91

smoothSolver:  Solving for Ux, Initial residual = 0.000423709, Final residual = 1.21241e-05, No Iterations 4
smoothSolver:  Solving for Uy, Initial residual = 0.00112154, Final residual = 3.77763e-05, No Iterations 4
GAMG:  Solving for p, Initial residual = 0.00389999, Final residual = 0.000348299, No Iterations 3
time step continuity errors : sum local = 9.84996e-05, global = 8.94007e-06, cumulative = 0.00055726
ExecutionTime = 1.77 s  ClockTime = 2 s

Time = 92

smoothSolver:  Solving for Ux, Initial residual = 0.000395925, Final residual = 1.1588e-05, No Iterations 4
smoothSolver:  Solving for Uy, Initial residual = 0.00105356, Final residual = 3.58628e-05, No Iterations 4
GAMG:  Solving for p, Initial residual = 0.00363617, Final residual = 0.000328732, No Iterations 3
time step continuity errors : sum local = 9.3168e-05, global = 1.50094e-05, cumulative = 0.000572269
ExecutionTime = 1.78 s  ClockTime = 2 s

Time = 93

smoothSolver:  Solving for Ux, Initial residual = 0.000369574, Final residual = 1.10238e-05, No Iterations 4
smoothSolver:  Solving for Uy, Initial residual = 0.000986234, Final residual = 3.38288e-05, No Iterations 4
GAMG:  Solving for p, Initial residual = 0.00337312, Final residual = 0.000285173, No Iterations 3
time step continuity errors : sum local = 8.118e-05, global = 1.78443e-05, cumulative = 0.000590114
ExecutionTime = 1.79 s  ClockTime = 2 s

Time = 94

smoothSolver:  Solving for Ux, Initial residual = 0.00034523, Final residual = 1.04527e-05, No Iterations 4
smoothSolver:  Solving for Uy, Initial residual = 0.000921036, Final residual = 3.17299e-05, No Iterations 4
GAMG:  Solving for p, Initial residual = 0.00309272, Final residual = 0.00025539, No Iterations 3
time step continuity errors : sum local = 7.31105e-05, global = 1.93019e-05, cumulative = 0.000609416
ExecutionTime = 1.8 s  ClockTime = 2 s

Time = 95

smoothSolver:  Solving for Ux, Initial residual = 0.000322628, Final residual = 9.89664e-06, No Iterations 4
smoothSolver:  Solving for Uy, Initial residual = 0.000861701, Final residual = 2.96924e-05, No Iterations 4
GAMG:  Solving for p, Initial residual = 0.00282489, Final residual = 0.000235094, No Iterations 3
time step continuity errors : sum local = 6.76697e-05, global = 1.99095e-05, cumulative = 0.000629325
ExecutionTime = 1.81 s  ClockTime = 2 s

Time = 96

smoothSolver:  Solving for Ux, Initial residual = 0.000301868, Final residual = 9.35722e-06, No Iterations 4
smoothSolver:  Solving for Uy, Initial residual = 0.000808535, Final residual = 2.77907e-05, No Iterations 4
GAMG:  Solving for p, Initial residual = 0.0025901, Final residual = 0.000222607, No Iterations 3
time step continuity errors : sum local = 6.44194e-05, global = 2.01792e-05, cumulative = 0.000649504
ExecutionTime = 1.82 s  ClockTime = 2 s

Time = 97

smoothSolver:  Solving for Ux, Initial residual = 0.000282509, Final residual = 8.839e-06, No Iterations 4
smoothSolver:  Solving for Uy, Initial residual = 0.00075914, Final residual = 2.60123e-05, No Iterations 4
GAMG:  Solving for p, Initial residual = 0.00240918, Final residual = 0.00021255, No Iterations 3
time step continuity errors : sum local = 6.18331e-05, global = 2.01755e-05, cumulative = 0.00066968
ExecutionTime = 1.85 s  ClockTime = 2 s

Time = 98

smoothSolver:  Solving for Ux, Initial residual = 0.000264613, Final residual = 8.35868e-06, No Iterations 4
smoothSolver:  Solving for Uy, Initial residual = 0.000711567, Final residual = 2.43208e-05, No Iterations 4
GAMG:  Solving for p, Initial residual = 0.0022515, Final residual = 0.000200546, No Iterations 3
time step continuity errors : sum local = 5.86405e-05, global = 1.98612e-05, cumulative = 0.000689541
ExecutionTime = 1.86 s  ClockTime = 2 s

Time = 99

smoothSolver:  Solving for Ux, Initial residual = 0.00024787, Final residual = 7.93487e-06, No Iterations 4
smoothSolver:  Solving for Uy, Initial residual = 0.00066557, Final residual = 2.27415e-05, No Iterations 4
GAMG:  Solving for p, Initial residual = 0.0021037, Final residual = 0.000185282, No Iterations 3
time step continuity errors : sum local = 5.44652e-05, global = 1.91406e-05, cumulative = 0.000708682
ExecutionTime = 1.87 s  ClockTime = 2 s

Time = 100

smoothSolver:  Solving for Ux, Initial residual = 0.000232432, Final residual = 7.57969e-06, No Iterations 4
smoothSolver:  Solving for Uy, Initial residual = 0.000621786, Final residual = 2.13073e-05, No Iterations 4
GAMG:  Solving for p, Initial residual = 0.00195335, Final residual = 0.000167846, No Iterations 3
time step continuity errors : sum local = 4.95964e-05, global = 1.79741e-05, cumulative = 0.000726656
ExecutionTime = 1.9 s  ClockTime = 2 s

Time = 101

smoothSolver:  Solving for Ux, Initial residual = 0.000218301, Final residual = 7.29682e-06, No Iterations 4
smoothSolver:  Solving for Uy, Initial residual = 0.000581104, Final residual = 2.00676e-05, No Iterations 4
GAMG:  Solving for p, Initial residual = 0.00180128, Final residual = 0.000151196, No Iterations 3
time step continuity errors : sum local = 4.48871e-05, global = 1.64798e-05, cumulative = 0.000743136
ExecutionTime = 1.93 s  ClockTime = 2 s

Time = 102

smoothSolver:  Solving for Ux, Initial residual = 0.000205439, Final residual = 7.07719e-06, No Iterations 4
smoothSolver:  Solving for Uy, Initial residual = 0.000543757, Final residual = 1.89834e-05, No Iterations 4
GAMG:  Solving for p, Initial residual = 0.00166233, Final residual = 0.000137759, No Iterations 3
time step continuity errors : sum local = 4.10613e-05, global = 1.48e-05, cumulative = 0.000757936
ExecutionTime = 1.94 s  ClockTime = 2 s

Time = 103

smoothSolver:  Solving for Ux, Initial residual = 0.000193892, Final residual = 6.91377e-06, No Iterations 4
smoothSolver:  Solving for Uy, Initial residual = 0.000509248, Final residual = 1.80225e-05, No Iterations 4
GAMG:  Solving for p, Initial residual = 0.00153366, Final residual = 0.000127991, No Iterations 3
time step continuity errors : sum local = 3.82732e-05, global = 1.2932e-05, cumulative = 0.000770868
ExecutionTime = 1.96 s  ClockTime = 2 s

Time = 104

smoothSolver:  Solving for Ux, Initial residual = 0.000183572, Final residual = 6.79693e-06, No Iterations 4
smoothSolver:  Solving for Uy, Initial residual = 0.000477572, Final residual = 1.71629e-05, No Iterations 4
GAMG:  Solving for p, Initial residual = 0.00141462, Final residual = 0.000118779, No Iterations 3
time step continuity errors : sum local = 3.56081e-05, global = 1.08288e-05, cumulative = 0.000781696
ExecutionTime = 1.97 s  ClockTime = 2 s

Time = 105

smoothSolver:  Solving for Ux, Initial residual = 0.000174412, Final residual = 6.71762e-06, No Iterations 4
smoothSolver:  Solving for Uy, Initial residual = 0.000449032, Final residual = 1.6407e-05, No Iterations 4
GAMG:  Solving for p, Initial residual = 0.00129862, Final residual = 0.000108506, No Iterations 3
time step continuity errors : sum local = 3.25908e-05, global = 8.48262e-06, cumulative = 0.000790179
ExecutionTime = 2 s  ClockTime = 2 s

Time = 106

smoothSolver:  Solving for Ux, Initial residual = 0.000166353, Final residual = 6.67104e-06, No Iterations 4
smoothSolver:  Solving for Uy, Initial residual = 0.000423943, Final residual = 1.57658e-05, No Iterations 4
GAMG:  Solving for p, Initial residual = 0.0011865, Final residual = 9.75797e-05, No Iterations 3
time step continuity errors : sum local = 2.93505e-05, global = 6.08876e-06, cumulative = 0.000796268
ExecutionTime = 2.01 s  ClockTime = 2 s

Time = 107

smoothSolver:  Solving for Ux, Initial residual = 0.000159275, Final residual = 6.64276e-06, No Iterations 4
smoothSolver:  Solving for Uy, Initial residual = 0.000401949, Final residual = 1.52215e-05, No Iterations 4
GAMG:  Solving for p, Initial residual = 0.00108119, Final residual = 8.73508e-05, No Iterations 3
time step continuity errors : sum local = 2.6298e-05, global = 3.51314e-06, cumulative = 0.000799781
ExecutionTime = 2.02 s  ClockTime = 2 s

Time = 108

smoothSolver:  Solving for Ux, Initial residual = 0.000153019, Final residual = 6.62508e-06, No Iterations 4
smoothSolver:  Solving for Uy, Initial residual = 0.000382474, Final residual = 1.47571e-05, No Iterations 4
GAMG:  Solving for p, Initial residual = 0.000984902, Final residual = 8.00175e-05, No Iterations 3
time step continuity errors : sum local = 2.41052e-05, global = 1.10052e-06, cumulative = 0.000800881
ExecutionTime = 2.04 s  ClockTime = 2 s

Time = 109

smoothSolver:  Solving for Ux, Initial residual = 0.000147474, Final residual = 6.61403e-06, No Iterations 4
smoothSolver:  Solving for Uy, Initial residual = 0.000365112, Final residual = 1.43444e-05, No Iterations 4
GAMG:  Solving for p, Initial residual = 0.00089869, Final residual = 7.61357e-05, No Iterations 3
time step continuity errors : sum local = 2.2944e-05, global = -2.33639e-07, cumulative = 0.000800648
ExecutionTime = 2.05 s  ClockTime = 2 s

Time = 110

smoothSolver:  Solving for Ux, Initial residual = 0.000142607, Final residual = 6.60874e-06, No Iterations 4
smoothSolver:  Solving for Uy, Initial residual = 0.000349474, Final residual = 1.39693e-05, No Iterations 4
GAMG:  Solving for p, Initial residual = 0.000818074, Final residual = 6.83852e-05, No Iterations 3
time step continuity errors : sum local = 2.06045e-05, global = -1.06191e-06, cumulative = 0.000799586
ExecutionTime = 2.1 s  ClockTime = 2 s

Time = 111

smoothSolver:  Solving for Ux, Initial residual = 0.000138256, Final residual = 6.60611e-06, No Iterations 4
smoothSolver:  Solving for Uy, Initial residual = 0.000335685, Final residual = 1.36273e-05, No Iterations 4
GAMG:  Solving for p, Initial residual = 0.000741243, Final residual = 6.19308e-05, No Iterations 3
time step continuity errors : sum local = 1.86484e-05, global = -1.45004e-06, cumulative = 0.000798136
ExecutionTime = 2.13 s  ClockTime = 2 s

Time = 112

smoothSolver:  Solving for Ux, Initial residual = 0.00013432, Final residual = 6.61059e-06, No Iterations 4
smoothSolver:  Solving for Uy, Initial residual = 0.000323572, Final residual = 1.33136e-05, No Iterations 4
GAMG:  Solving for p, Initial residual = 0.000670875, Final residual = 5.61237e-05, No Iterations 3
time step continuity errors : sum local = 1.68862e-05, global = -1.56122e-06, cumulative = 0.000796575
ExecutionTime = 2.15 s  ClockTime = 2 s

Time = 113

smoothSolver:  Solving for Ux, Initial residual = 0.000130752, Final residual = 6.62075e-06, No Iterations 4
smoothSolver:  Solving for Uy, Initial residual = 0.000312703, Final residual = 1.30347e-05, No Iterations 4
GAMG:  Solving for p, Initial residual = 0.000615248, Final residual = 5.17277e-05, No Iterations 3
time step continuity errors : sum local = 1.55514e-05, global = -1.5544e-06, cumulative = 0.00079502
ExecutionTime = 2.16 s  ClockTime = 2 s

Time = 114

smoothSolver:  Solving for Ux, Initial residual = 0.000127499, Final residual = 6.63802e-06, No Iterations 4
smoothSolver:  Solving for Uy, Initial residual = 0.000302334, Final residual = 1.27817e-05, No Iterations 4
GAMG:  Solving for p, Initial residual = 0.000573266, Final residual = 4.8931e-05, No Iterations 3
time step continuity errors : sum local = 1.47003e-05, global = -1.55552e-06, cumulative = 0.000793465
ExecutionTime = 2.18 s  ClockTime = 2 s

Time = 115

smoothSolver:  Solving for Ux, Initial residual = 0.000124492, Final residual = 6.66086e-06, No Iterations 4
smoothSolver:  Solving for Uy, Initial residual = 0.00029208, Final residual = 1.25511e-05, No Iterations 4
GAMG:  Solving for p, Initial residual = 0.000538543, Final residual = 4.71486e-05, No Iterations 3
time step continuity errors : sum local = 1.41556e-05, global = -1.56395e-06, cumulative = 0.000791901
ExecutionTime = 2.19 s  ClockTime = 2 s

Time = 116

smoothSolver:  Solving for Ux, Initial residual = 0.000121721, Final residual = 6.6879e-06, No Iterations 4
smoothSolver:  Solving for Uy, Initial residual = 0.000281799, Final residual = 1.2336e-05, No Iterations 4
GAMG:  Solving for p, Initial residual = 0.000506463, Final residual = 4.49194e-05, No Iterations 3
time step continuity errors : sum local = 1.34776e-05, global = -1.58896e-06, cumulative = 0.000790312
ExecutionTime = 2.2 s  ClockTime = 2 s

Time = 117

smoothSolver:  Solving for Ux, Initial residual = 0.00011912, Final residual = 6.71871e-06, No Iterations 4
smoothSolver:  Solving for Uy, Initial residual = 0.000271702, Final residual = 1.2135e-05, No Iterations 4
GAMG:  Solving for p, Initial residual = 0.000475326, Final residual = 4.20135e-05, No Iterations 3
time step continuity errors : sum local = 1.25974e-05, global = -1.57932e-06, cumulative = 0.000788732
ExecutionTime = 2.22 s  ClockTime = 2 s

Time = 118

smoothSolver:  Solving for Ux, Initial residual = 0.000116639, Final residual = 6.74921e-06, No Iterations 4
smoothSolver:  Solving for Uy, Initial residual = 0.000261917, Final residual = 1.19482e-05, No Iterations 4
GAMG:  Solving for p, Initial residual = 0.000447657, Final residual = 3.87763e-05, No Iterations 3
time step continuity errors : sum local = 1.16191e-05, global = -1.51226e-06, cumulative = 0.00078722
ExecutionTime = 2.24 s  ClockTime = 2 s

Time = 119

smoothSolver:  Solving for Ux, Initial residual = 0.00011427, Final residual = 6.77828e-06, No Iterations 4
smoothSolver:  Solving for Uy, Initial residual = 0.000252395, Final residual = 1.17703e-05, No Iterations 4
GAMG:  Solving for p, Initial residual = 0.000425569, Final residual = 3.56073e-05, No Iterations 3
time step continuity errors : sum local = 1.06629e-05, global = -1.3288e-06, cumulative = 0.000785891
ExecutionTime = 2.25 s  ClockTime = 2 s

Time = 120

smoothSolver:  Solving for Ux, Initial residual = 0.000111983, Final residual = 6.80407e-06, No Iterations 4
smoothSolver:  Solving for Uy, Initial residual = 0.000243053, Final residual = 1.16061e-05, No Iterations 4
GAMG:  Solving for p, Initial residual = 0.000407751, Final residual = 3.30714e-05, No Iterations 3
time step continuity errors : sum local = 9.89804e-06, global = -1.13898e-06, cumulative = 0.000784752
ExecutionTime = 2.28 s  ClockTime = 2 s

Time = 121

smoothSolver:  Solving for Ux, Initial residual = 0.000109787, Final residual = 6.82554e-06, No Iterations 4
smoothSolver:  Solving for Uy, Initial residual = 0.000233919, Final residual = 1.14537e-05, No Iterations 4
GAMG:  Solving for p, Initial residual = 0.000391805, Final residual = 3.10056e-05, No Iterations 3
time step continuity errors : sum local = 9.2759e-06, global = -9.3962e-07, cumulative = 0.000783813
ExecutionTime = 2.3 s  ClockTime = 2 s

Time = 122

smoothSolver:  Solving for Ux, Initial residual = 0.000107689, Final residual = 6.84164e-06, No Iterations 4
smoothSolver:  Solving for Uy, Initial residual = 0.000225139, Final residual = 1.1318e-05, No Iterations 4
GAMG:  Solving for p, Initial residual = 0.000376458, Final residual = 2.94632e-05, No Iterations 3
time step continuity errors : sum local = 8.81213e-06, global = -7.82001e-07, cumulative = 0.000783031
ExecutionTime = 2.31 s  ClockTime = 2 s

Time = 123

smoothSolver:  Solving for Ux, Initial residual = 0.000105715, Final residual = 6.85387e-06, No Iterations 4
smoothSolver:  Solving for Uy, Initial residual = 0.000216752, Final residual = 1.11984e-05, No Iterations 4
GAMG:  Solving for p, Initial residual = 0.000361145, Final residual = 2.72537e-05, No Iterations 3
time step continuity errors : sum local = 8.15004e-06, global = -5.85747e-07, cumulative = 0.000782445
ExecutionTime = 2.32 s  ClockTime = 2 s

Time = 124

smoothSolver:  Solving for Ux, Initial residual = 0.000103871, Final residual = 6.86075e-06, No Iterations 4
smoothSolver:  Solving for Uy, Initial residual = 0.000208809, Final residual = 1.10942e-05, No Iterations 4
GAMG:  Solving for p, Initial residual = 0.000345982, Final residual = 2.49568e-05, No Iterations 3
time step continuity errors : sum local = 7.4625e-06, global = -4.1379e-07, cumulative = 0.000782031
ExecutionTime = 2.33 s  ClockTime = 2 s

Time = 125

smoothSolver:  Solving for Ux, Initial residual = 0.000102163, Final residual = 6.86279e-06, No Iterations 4
smoothSolver:  Solving for Uy, Initial residual = 0.000201359, Final residual = 1.10029e-05, No Iterations 4
GAMG:  Solving for p, Initial residual = 0.000331163, Final residual = 2.2717e-05, No Iterations 3
time step continuity errors : sum local = 6.79249e-06, global = -3.31261e-07, cumulative = 0.0007817
ExecutionTime = 2.34 s  ClockTime = 3 s

Time = 126

smoothSolver:  Solving for Ux, Initial residual = 0.000100583, Final residual = 6.85929e-06, No Iterations 4
smoothSolver:  Solving for Uy, Initial residual = 0.000194387, Final residual = 1.09245e-05, No Iterations 4
GAMG:  Solving for p, Initial residual = 0.000317377, Final residual = 2.08878e-05, No Iterations 3
time step continuity errors : sum local = 6.24582e-06, global = -1.70486e-07, cumulative = 0.00078153
ExecutionTime = 2.35 s  ClockTime = 3 s

Time = 127

smoothSolver:  Solving for Ux, Initial residual = 9.91651e-05, Final residual = 6.84877e-06, No Iterations 4
smoothSolver:  Solving for Uy, Initial residual = 0.000187844, Final residual = 1.08599e-05, No Iterations 4
GAMG:  Solving for p, Initial residual = 0.000303687, Final residual = 1.94897e-05, No Iterations 3
time step continuity errors : sum local = 5.82822e-06, global = 2.39871e-08, cumulative = 0.000781554
ExecutionTime = 2.36 s  ClockTime = 3 s

Time = 128

smoothSolver:  Solving for Ux, Initial residual = 9.78956e-05, Final residual = 6.83148e-06, No Iterations 4
smoothSolver:  Solving for Uy, Initial residual = 0.000181752, Final residual = 1.08095e-05, No Iterations 4
GAMG:  Solving for p, Initial residual = 0.000290409, Final residual = 1.87689e-05, No Iterations 3
time step continuity errors : sum local = 5.61332e-06, global = 2.56982e-07, cumulative = 0.000781811
ExecutionTime = 2.37 s  ClockTime = 3 s

Time = 129

smoothSolver:  Solving for Ux, Initial residual = 9.67649e-05, Final residual = 6.80851e-06, No Iterations 4
smoothSolver:  Solving for Uy, Initial residual = 0.000176146, Final residual = 1.07719e-05, No Iterations 4
GAMG:  Solving for p, Initial residual = 0.000278378, Final residual = 1.88498e-05, No Iterations 3
time step continuity errors : sum local = 5.63858e-06, global = 4.37235e-07, cumulative = 0.000782248
ExecutionTime = 2.38 s  ClockTime = 3 s

Time = 130

smoothSolver:  Solving for Ux, Initial residual = 9.57378e-05, Final residual = 6.77994e-06, No Iterations 4
smoothSolver:  Solving for Uy, Initial residual = 0.000170981, Final residual = 1.07489e-05, No Iterations 4
GAMG:  Solving for p, Initial residual = 0.000268259, Final residual = 1.8786e-05, No Iterations 3
time step continuity errors : sum local = 5.62105e-06, global = 5.15709e-07, cumulative = 0.000782763
ExecutionTime = 2.41 s  ClockTime = 3 s

Time = 131

smoothSolver:  Solving for Ux, Initial residual = 9.48331e-05, Final residual = 6.74646e-06, No Iterations 4
smoothSolver:  Solving for Uy, Initial residual = 0.00016618, Final residual = 1.07367e-05, No Iterations 4
GAMG:  Solving for p, Initial residual = 0.000258939, Final residual = 1.81871e-05, No Iterations 3
time step continuity errors : sum local = 5.4437e-06, global = 5.61479e-07, cumulative = 0.000783325
ExecutionTime = 2.42 s  ClockTime = 3 s

Time = 132

smoothSolver:  Solving for Ux, Initial residual = 9.40641e-05, Final residual = 6.70819e-06, No Iterations 4
smoothSolver:  Solving for Uy, Initial residual = 0.000161737, Final residual = 1.07377e-05, No Iterations 4
GAMG:  Solving for p, Initial residual = 0.00024946, Final residual = 1.75157e-05, No Iterations 3
time step continuity errors : sum local = 5.24457e-06, global = 5.77716e-07, cumulative = 0.000783903
ExecutionTime = 2.42 s  ClockTime = 3 s

Time = 133

smoothSolver:  Solving for Ux, Initial residual = 9.33788e-05, Final residual = 6.6651e-06, No Iterations 4
smoothSolver:  Solving for Uy, Initial residual = 0.000157696, Final residual = 1.07504e-05, No Iterations 4
GAMG:  Solving for p, Initial residual = 0.000240057, Final residual = 1.70718e-05, No Iterations 3
time step continuity errors : sum local = 5.11337e-06, global = 5.8623e-07, cumulative = 0.000784489
ExecutionTime = 2.43 s  ClockTime = 3 s

Time = 134

smoothSolver:  Solving for Ux, Initial residual = 9.27629e-05, Final residual = 6.61763e-06, No Iterations 4
smoothSolver:  Solving for Uy, Initial residual = 0.000154085, Final residual = 1.07736e-05, No Iterations 4
GAMG:  Solving for p, Initial residual = 0.000231619, Final residual = 1.64691e-05, No Iterations 3
time step continuity errors : sum local = 4.93445e-06, global = 5.86233e-07, cumulative = 0.000785075
ExecutionTime = 2.44 s  ClockTime = 3 s

Time = 135

smoothSolver:  Solving for Ux, Initial residual = 9.22264e-05, Final residual = 6.56651e-06, No Iterations 4
smoothSolver:  Solving for Uy, Initial residual = 0.000150879, Final residual = 1.08091e-05, No Iterations 4
GAMG:  Solving for p, Initial residual = 0.000223863, Final residual = 1.62449e-05, No Iterations 3
time step continuity errors : sum local = 4.86895e-06, global = 6.01805e-07, cumulative = 0.000785677
ExecutionTime = 2.45 s  ClockTime = 3 s

Time = 136

smoothSolver:  Solving for Ux, Initial residual = 9.17514e-05, Final residual = 6.51194e-06, No Iterations 4
smoothSolver:  Solving for Uy, Initial residual = 0.000148052, Final residual = 1.08573e-05, No Iterations 4
GAMG:  Solving for p, Initial residual = 0.000216578, Final residual = 1.60079e-05, No Iterations 3
time step continuity errors : sum local = 4.79959e-06, global = 6.14911e-07, cumulative = 0.000786292
ExecutionTime = 2.46 s  ClockTime = 3 s

Time = 137

smoothSolver:  Solving for Ux, Initial residual = 9.13471e-05, Final residual = 6.4542e-06, No Iterations 4
smoothSolver:  Solving for Uy, Initial residual = 0.000145608, Final residual = 1.09233e-05, No Iterations 4
GAMG:  Solving for p, Initial residual = 0.000209472, Final residual = 1.56135e-05, No Iterations 3
time step continuity errors : sum local = 4.68302e-06, global = 6.16e-07, cumulative = 0.000786908
ExecutionTime = 2.47 s  ClockTime = 3 s

Time = 138

smoothSolver:  Solving for Ux, Initial residual = 9.09983e-05, Final residual = 6.39404e-06, No Iterations 4
smoothSolver:  Solving for Uy, Initial residual = 0.00014356, Final residual = 1.10076e-05, No Iterations 4
GAMG:  Solving for p, Initial residual = 0.000202473, Final residual = 1.51801e-05, No Iterations 3
time step continuity errors : sum local = 4.55473e-06, global = 6.12269e-07, cumulative = 0.00078752
ExecutionTime = 2.48 s  ClockTime = 3 s

Time = 139

smoothSolver:  Solving for Ux, Initial residual = 9.07236e-05, Final residual = 6.33195e-06, No Iterations 4
smoothSolver:  Solving for Uy, Initial residual = 0.000141924, Final residual = 1.11068e-05, No Iterations 4
GAMG:  Solving for p, Initial residual = 0.000195544, Final residual = 1.46983e-05, No Iterations 3
time step continuity errors : sum local = 4.41182e-06, global = 6.1369e-07, cumulative = 0.000788134
ExecutionTime = 2.49 s  ClockTime = 3 s

Time = 140

smoothSolver:  Solving for Ux, Initial residual = 9.05043e-05, Final residual = 6.2682e-06, No Iterations 4
smoothSolver:  Solving for Uy, Initial residual = 0.000140699, Final residual = 1.12167e-05, No Iterations 4
GAMG:  Solving for p, Initial residual = 0.000188665, Final residual = 1.42717e-05, No Iterations 3
time step continuity errors : sum local = 4.28535e-06, global = 6.10348e-07, cumulative = 0.000788744
ExecutionTime = 2.52 s  ClockTime = 3 s

Time = 141

smoothSolver:  Solving for Ux, Initial residual = 9.03414e-05, Final residual = 6.2036e-06, No Iterations 4
smoothSolver:  Solving for Uy, Initial residual = 0.000139888, Final residual = 1.13323e-05, No Iterations 4
GAMG:  Solving for p, Initial residual = 0.000181868, Final residual = 1.39484e-05, No Iterations 3
time step continuity errors : sum local = 4.18968e-06, global = 6.11117e-07, cumulative = 0.000789355
ExecutionTime = 2.53 s  ClockTime = 3 s

Time = 142

smoothSolver:  Solving for Ux, Initial residual = 9.02391e-05, Final residual = 6.1384e-06, No Iterations 4
smoothSolver:  Solving for Uy, Initial residual = 0.000139519, Final residual = 1.14509e-05, No Iterations 4
GAMG:  Solving for p, Initial residual = 0.000175355, Final residual = 1.36653e-05, No Iterations 3
time step continuity errors : sum local = 4.10605e-06, global = 6.14423e-07, cumulative = 0.00078997
ExecutionTime = 2.55 s  ClockTime = 3 s

Time = 143

smoothSolver:  Solving for Ux, Initial residual = 9.01716e-05, Final residual = 6.07277e-06, No Iterations 4
smoothSolver:  Solving for Uy, Initial residual = 0.000139621, Final residual = 1.157e-05, No Iterations 4
GAMG:  Solving for p, Initial residual = 0.000169187, Final residual = 1.33681e-05, No Iterations 3
time step continuity errors : sum local = 4.01812e-06, global = 6.17033e-07, cumulative = 0.000790587
ExecutionTime = 2.56 s  ClockTime = 3 s

Time = 144

smoothSolver:  Solving for Ux, Initial residual = 9.01487e-05, Final residual = 6.00704e-06, No Iterations 4
smoothSolver:  Solving for Uy, Initial residual = 0.000140163, Final residual = 1.16846e-05, No Iterations 4
GAMG:  Solving for p, Initial residual = 0.000163439, Final residual = 1.30301e-05, No Iterations 3
time step continuity errors : sum local = 3.9179e-06, global = 6.16845e-07, cumulative = 0.000791204
ExecutionTime = 2.58 s  ClockTime = 3 s

Time = 145

smoothSolver:  Solving for Ux, Initial residual = 9.01433e-05, Final residual = 5.94159e-06, No Iterations 4
smoothSolver:  Solving for Uy, Initial residual = 0.000141119, Final residual = 1.17886e-05, No Iterations 4
GAMG:  Solving for p, Initial residual = 0.000157994, Final residual = 1.26862e-05, No Iterations 3
time step continuity errors : sum local = 3.81572e-06, global = 6.14061e-07, cumulative = 0.000791818
ExecutionTime = 2.6 s  ClockTime = 3 s

Time = 146

smoothSolver:  Solving for Ux, Initial residual = 9.01605e-05, Final residual = 5.8768e-06, No Iterations 4
smoothSolver:  Solving for Uy, Initial residual = 0.000142479, Final residual = 1.18795e-05, No Iterations 4
GAMG:  Solving for p, Initial residual = 0.000152872, Final residual = 1.23806e-05, No Iterations 3
time step continuity errors : sum local = 3.72493e-06, global = 6.10936e-07, cumulative = 0.000792429
ExecutionTime = 2.61 s  ClockTime = 3 s

Time = 147

smoothSolver:  Solving for Ux, Initial residual = 9.019e-05, Final residual = 5.81258e-06, No Iterations 4
smoothSolver:  Solving for Uy, Initial residual = 0.000144215, Final residual = 1.19571e-05, No Iterations 4
GAMG:  Solving for p, Initial residual = 0.000147935, Final residual = 1.21366e-05, No Iterations 3
time step continuity errors : sum local = 3.65264e-06, global = 6.08819e-07, cumulative = 0.000793037
ExecutionTime = 2.63 s  ClockTime = 3 s

Time = 148

smoothSolver:  Solving for Ux, Initial residual = 9.02273e-05, Final residual = 5.74922e-06, No Iterations 4
smoothSolver:  Solving for Uy, Initial residual = 0.000146298, Final residual = 1.20228e-05, No Iterations 4
GAMG:  Solving for p, Initial residual = 0.000143451, Final residual = 1.19534e-05, No Iterations 3
time step continuity errors : sum local = 3.59858e-06, global = 6.07545e-07, cumulative = 0.000793645
ExecutionTime = 2.64 s  ClockTime = 3 s

Time = 149

smoothSolver:  Solving for Ux, Initial residual = 9.02841e-05, Final residual = 5.68673e-06, No Iterations 4
smoothSolver:  Solving for Uy, Initial residual = 0.000148703, Final residual = 1.20771e-05, No Iterations 4
GAMG:  Solving for p, Initial residual = 0.000139181, Final residual = 1.18233e-05, No Iterations 3
time step continuity errors : sum local = 3.56048e-06, global = 6.06161e-07, cumulative = 0.000794251
ExecutionTime = 2.65 s  ClockTime = 3 s

Time = 150

smoothSolver:  Solving for Ux, Initial residual = 9.03343e-05, Final residual = 5.62547e-06, No Iterations 4
smoothSolver:  Solving for Uy, Initial residual = 0.000151352, Final residual = 1.21198e-05, No Iterations 4
GAMG:  Solving for p, Initial residual = 0.000135221, Final residual = 1.1745e-05, No Iterations 3
time step continuity errors : sum local = 3.53781e-06, global = 6.03913e-07, cumulative = 0.000794855
ExecutionTime = 2.68 s  ClockTime = 3 s

Time = 151

smoothSolver:  Solving for Ux, Initial residual = 9.03683e-05, Final residual = 5.56577e-06, No Iterations 4
smoothSolver:  Solving for Uy, Initial residual = 0.000154162, Final residual = 1.21504e-05, No Iterations 4
GAMG:  Solving for p, Initial residual = 0.000131521, Final residual = 1.1683e-05, No Iterations 3
time step continuity errors : sum local = 3.52003e-06, global = 6.00842e-07, cumulative = 0.000795456
ExecutionTime = 2.69 s  ClockTime = 3 s

Time = 152

smoothSolver:  Solving for Ux, Initial residual = 9.03826e-05, Final residual = 5.50783e-06, No Iterations 4
smoothSolver:  Solving for Uy, Initial residual = 0.000157037, Final residual = 1.21691e-05, No Iterations 4
GAMG:  Solving for p, Initial residual = 0.000128153, Final residual = 1.16721e-05, No Iterations 3
time step continuity errors : sum local = 3.51764e-06, global = 5.98196e-07, cumulative = 0.000796054
ExecutionTime = 2.7 s  ClockTime = 3 s

Time = 153

smoothSolver:  Solving for Ux, Initial residual = 9.03757e-05, Final residual = 5.452e-06, No Iterations 4
smoothSolver:  Solving for Uy, Initial residual = 0.000159908, Final residual = 1.21767e-05, No Iterations 4
GAMG:  Solving for p, Initial residual = 0.000125015, Final residual = 1.16927e-05, No Iterations 3
time step continuity errors : sum local = 3.52473e-06, global = 5.97063e-07, cumulative = 0.000796651
ExecutionTime = 2.71 s  ClockTime = 3 s

Time = 154

smoothSolver:  Solving for Ux, Initial residual = 9.03617e-05, Final residual = 5.39857e-06, No Iterations 4
smoothSolver:  Solving for Uy, Initial residual = 0.000162696, Final residual = 1.2175e-05, No Iterations 4
GAMG:  Solving for p, Initial residual = 0.000122034, Final residual = 1.17216e-05, No Iterations 3
time step continuity errors : sum local = 3.53434e-06, global = 5.97694e-07, cumulative = 0.000797249
ExecutionTime = 2.73 s  ClockTime = 3 s

Time = 155

smoothSolver:  Solving for Ux, Initial residual = 9.03342e-05, Final residual = 5.34785e-06, No Iterations 4
smoothSolver:  Solving for Uy, Initial residual = 0.000165359, Final residual = 1.21654e-05, No Iterations 4
GAMG:  Solving for p, Initial residual = 0.000119279, Final residual = 1.17444e-05, No Iterations 3
time step continuity errors : sum local = 3.54207e-06, global = 5.99091e-07, cumulative = 0.000797848
ExecutionTime = 2.74 s  ClockTime = 3 s

Time = 156

smoothSolver:  Solving for Ux, Initial residual = 9.02825e-05, Final residual = 5.29979e-06, No Iterations 4
smoothSolver:  Solving for Uy, Initial residual = 0.000167818, Final residual = 1.21484e-05, No Iterations 4
GAMG:  Solving for p, Initial residual = 0.000116785, Final residual = 6.46192e-06, No Iterations 4
time step continuity errors : sum local = 1.94935e-06, global = 3.5492e-07, cumulative = 0.000798203
ExecutionTime = 2.76 s  ClockTime = 3 s

Time = 157

smoothSolver:  Solving for Ux, Initial residual = 9.02156e-05, Final residual = 5.2559e-06, No Iterations 4
smoothSolver:  Solving for Uy, Initial residual = 0.00017058, Final residual = 1.21678e-05, No Iterations 4
GAMG:  Solving for p, Initial residual = 0.000113901, Final residual = 1.13855e-05, No Iterations 3
time step continuity errors : sum local = 3.43565e-06, global = 5.74805e-07, cumulative = 0.000798778
ExecutionTime = 2.77 s  ClockTime = 3 s

Time = 158

smoothSolver:  Solving for Ux, Initial residual = 9.0096e-05, Final residual = 5.21144e-06, No Iterations 4
smoothSolver:  Solving for Uy, Initial residual = 0.00017188, Final residual = 1.20878e-05, No Iterations 4
GAMG:  Solving for p, Initial residual = 0.000111291, Final residual = 6.41339e-06, No Iterations 4
time step continuity errors : sum local = 1.9356e-06, global = 3.45295e-07, cumulative = 0.000799123
ExecutionTime = 2.78 s  ClockTime = 3 s

Time = 159

smoothSolver:  Solving for Ux, Initial residual = 8.99725e-05, Final residual = 5.17263e-06, No Iterations 4
smoothSolver:  Solving for Uy, Initial residual = 0.000173678, Final residual = 1.2069e-05, No Iterations 4
GAMG:  Solving for p, Initial residual = 0.000109526, Final residual = 6.3816e-06, No Iterations 4
time step continuity errors : sum local = 1.92645e-06, global = 3.40393e-07, cumulative = 0.000799463
ExecutionTime = 2.8 s  ClockTime = 3 s

Time = 160

smoothSolver:  Solving for Ux, Initial residual = 8.97959e-05, Final residual = 5.13506e-06, No Iterations 4
smoothSolver:  Solving for Uy, Initial residual = 0.000175026, Final residual = 1.20331e-05, No Iterations 4
GAMG:  Solving for p, Initial residual = 0.000108027, Final residual = 6.29894e-06, No Iterations 4
time step continuity errors : sum local = 1.90188e-06, global = 3.33744e-07, cumulative = 0.000799797
ExecutionTime = 2.83 s  ClockTime = 3 s

Time = 161

smoothSolver:  Solving for Ux, Initial residual = 8.95914e-05, Final residual = 5.10033e-06, No Iterations 4
smoothSolver:  Solving for Uy, Initial residual = 0.000175928, Final residual = 1.19804e-05, No Iterations 4
GAMG:  Solving for p, Initial residual = 0.000106777, Final residual = 6.23624e-06, No Iterations 4
time step continuity errors : sum local = 1.88328e-06, global = 3.35936e-07, cumulative = 0.000800133
ExecutionTime = 2.84 s  ClockTime = 3 s

Time = 162

smoothSolver:  Solving for Ux, Initial residual = 8.93611e-05, Final residual = 5.06809e-06, No Iterations 4
smoothSolver:  Solving for Uy, Initial residual = 0.00017653, Final residual = 1.19235e-05, No Iterations 4
GAMG:  Solving for p, Initial residual = 0.000105885, Final residual = 6.15488e-06, No Iterations 4
time step continuity errors : sum local = 1.85903e-06, global = 3.3091e-07, cumulative = 0.000800464
ExecutionTime = 2.85 s  ClockTime = 3 s

Time = 163

smoothSolver:  Solving for Ux, Initial residual = 8.91087e-05, Final residual = 5.03861e-06, No Iterations 4
smoothSolver:  Solving for Uy, Initial residual = 0.000176932, Final residual = 1.187e-05, No Iterations 4
GAMG:  Solving for p, Initial residual = 0.000105459, Final residual = 6.04756e-06, No Iterations 4
time step continuity errors : sum local = 1.82692e-06, global = 3.24261e-07, cumulative = 0.000800788
ExecutionTime = 2.87 s  ClockTime = 3 s

Time = 164

smoothSolver:  Solving for Ux, Initial residual = 8.88281e-05, Final residual = 5.01194e-06, No Iterations 4
smoothSolver:  Solving for Uy, Initial residual = 0.000177133, Final residual = 1.18205e-05, No Iterations 4
GAMG:  Solving for p, Initial residual = 0.000105289, Final residual = 5.89417e-06, No Iterations 4
time step continuity errors : sum local = 1.78088e-06, global = 3.1355e-07, cumulative = 0.000801102
ExecutionTime = 2.87 s  ClockTime = 3 s

Time = 165

smoothSolver:  Solving for Ux, Initial residual = 8.85187e-05, Final residual = 4.98751e-06, No Iterations 4
smoothSolver:  Solving for Uy, Initial residual = 0.000177082, Final residual = 1.17697e-05, No Iterations 4
GAMG:  Solving for p, Initial residual = 0.000105069, Final residual = 1.04294e-05, No Iterations 3
time step continuity errors : sum local = 3.15164e-06, global = 4.81755e-07, cumulative = 0.000801583
ExecutionTime = 2.89 s  ClockTime = 3 s

Time = 166

smoothSolver:  Solving for Ux, Initial residual = 8.81645e-05, Final residual = 4.96349e-06, No Iterations 4
smoothSolver:  Solving for Uy, Initial residual = 0.000176175, Final residual = 1.16668e-05, No Iterations 4
GAMG:  Solving for p, Initial residual = 0.000106179, Final residual = 5.8187e-06, No Iterations 4
time step continuity errors : sum local = 1.7585e-06, global = 3.07771e-07, cumulative = 0.000801891
ExecutionTime = 2.91 s  ClockTime = 3 s

Time = 167

smoothSolver:  Solving for Ux, Initial residual = 8.78207e-05, Final residual = 4.9442e-06, No Iterations 4
smoothSolver:  Solving for Uy, Initial residual = 0.000176253, Final residual = 1.16618e-05, No Iterations 4
GAMG:  Solving for p, Initial residual = 0.000105458, Final residual = 1.02439e-05, No Iterations 3
time step continuity errors : sum local = 3.09635e-06, global = 4.59149e-07, cumulative = 0.00080235
ExecutionTime = 2.92 s  ClockTime = 3 s

Time = 168

smoothSolver:  Solving for Ux, Initial residual = 8.74202e-05, Final residual = 4.92355e-06, No Iterations 4
[...]
ExecutionTime = 8.07 s  ClockTime = 9 s

Time = 459

smoothSolver:  Solving for Ux, Initial residual = 7.54828e-05, Final residual = 4.4045e-06, No Iterations 4
smoothSolver:  Solving for Uy, Initial residual = 0.00014505, Final residual = 9.72964e-06, No Iterations 4
GAMG:  Solving for p, Initial residual = 8.70156e-05, Final residual = 7.74697e-06, No Iterations 3
time step continuity errors : sum local = 2.22289e-06, global = -2.61459e-07, cumulative = 0.000737823
ExecutionTime = 8.1 s  ClockTime = 9 s

Time = 460

smoothSolver:  Solving for Ux, Initial residual = 7.53261e-05, Final residual = 4.39499e-06, No Iterations 4
smoothSolver:  Solving for Uy, Initial residual = 0.000144763, Final residual = 9.7102e-06, No Iterations 4
GAMG:  Solving for p, Initial residual = 8.6871e-05, Final residual = 7.73467e-06, No Iterations 3
time step continuity errors : sum local = 2.2188e-06, global = -2.60939e-07, cumulative = 0.000737562
ExecutionTime = 8.13 s  ClockTime = 9 s

Time = 461

smoothSolver:  Solving for Ux, Initial residual = 7.51681e-05, Final residual = 4.38541e-06, No Iterations 4
smoothSolver:  Solving for Uy, Initial residual = 0.000144474, Final residual = 9.6906e-06, No Iterations 4
GAMG:  Solving for p, Initial residual = 8.67263e-05, Final residual = 7.72233e-06, No Iterations 3
time step continuity errors : sum local = 2.21471e-06, global = -2.60412e-07, cumulative = 0.000737302
ExecutionTime = 8.15 s  ClockTime = 9 s

Time = 462

smoothSolver:  Solving for Ux, Initial residual = 7.5009e-05, Final residual = 4.37576e-06, No Iterations 4
smoothSolver:  Solving for Uy, Initial residual = 0.000144182, Final residual = 9.67085e-06, No Iterations 4
GAMG:  Solving for p, Initial residual = 8.65796e-05, Final residual = 7.70977e-06, No Iterations 3
time step continuity errors : sum local = 2.21055e-06, global = -2.59894e-07, cumulative = 0.000737042
ExecutionTime = 8.16 s  ClockTime = 9 s

Time = 463

smoothSolver:  Solving for Ux, Initial residual = 7.48488e-05, Final residual = 4.36605e-06, No Iterations 4
smoothSolver:  Solving for Uy, Initial residual = 0.000143887, Final residual = 9.65093e-06, No Iterations 4
GAMG:  Solving for p, Initial residual = 8.64296e-05, Final residual = 7.69706e-06, No Iterations 3
time step continuity errors : sum local = 2.20635e-06, global = -2.59362e-07, cumulative = 0.000736782
ExecutionTime = 8.17 s  ClockTime = 9 s

Time = 464

smoothSolver:  Solving for Ux, Initial residual = 7.46873e-05, Final residual = 4.35628e-06, No Iterations 4
smoothSolver:  Solving for Uy, Initial residual = 0.000143591, Final residual = 9.63087e-06, No Iterations 4
GAMG:  Solving for p, Initial residual = 8.62774e-05, Final residual = 7.68409e-06, No Iterations 3
time step continuity errors : sum local = 2.20209e-06, global = -2.58813e-07, cumulative = 0.000736524
ExecutionTime = 8.19 s  ClockTime = 9 s

Time = 465

smoothSolver:  Solving for Ux, Initial residual = 7.45247e-05, Final residual = 4.34644e-06, No Iterations 4
smoothSolver:  Solving for Uy, Initial residual = 0.000143292, Final residual = 9.61066e-06, No Iterations 4
GAMG:  Solving for p, Initial residual = 8.61229e-05, Final residual = 7.67096e-06, No Iterations 3
time step continuity errors : sum local = 2.19778e-06, global = -2.5825e-07, cumulative = 0.000736265
ExecutionTime = 8.19 s  ClockTime = 9 s

Time = 466

smoothSolver:  Solving for Ux, Initial residual = 7.4361e-05, Final residual = 4.33654e-06, No Iterations 4
smoothSolver:  Solving for Uy, Initial residual = 0.00014299, Final residual = 9.59028e-06, No Iterations 4
GAMG:  Solving for p, Initial residual = 8.59666e-05, Final residual = 7.6577e-06, No Iterations 3
time step continuity errors : sum local = 2.19344e-06, global = -2.57683e-07, cumulative = 0.000736008
ExecutionTime = 8.21 s  ClockTime = 9 s

Time = 467

smoothSolver:  Solving for Ux, Initial residual = 7.4196e-05, Final residual = 4.3266e-06, No Iterations 4
smoothSolver:  Solving for Uy, Initial residual = 0.000142686, Final residual = 9.56975e-06, No Iterations 4
GAMG:  Solving for p, Initial residual = 8.58057e-05, Final residual = 7.64425e-06, No Iterations 3
time step continuity errors : sum local = 2.18905e-06, global = -2.57117e-07, cumulative = 0.000735751
ExecutionTime = 8.22 s  ClockTime = 9 s

Time = 468

smoothSolver:  Solving for Ux, Initial residual = 7.403e-05, Final residual = 4.3166e-06, No Iterations 4
smoothSolver:  Solving for Uy, Initial residual = 0.00014238, Final residual = 9.54907e-06, No Iterations 4
GAMG:  Solving for p, Initial residual = 8.56405e-05, Final residual = 7.63053e-06, No Iterations 3
time step continuity errors : sum local = 2.18458e-06, global = -2.56552e-07, cumulative = 0.000735494
ExecutionTime = 8.22 s  ClockTime = 9 s

Time = 469

smoothSolver:  Solving for Ux, Initial residual = 7.38628e-05, Final residual = 4.30654e-06, No Iterations 4
smoothSolver:  Solving for Uy, Initial residual = 0.000142071, Final residual = 9.52824e-06, No Iterations 4
GAMG:  Solving for p, Initial residual = 8.54761e-05, Final residual = 7.61663e-06, No Iterations 3
time step continuity errors : sum local = 2.18007e-06, global = -2.55973e-07, cumulative = 0.000735238
ExecutionTime = 8.24 s  ClockTime = 9 s

Time = 470

smoothSolver:  Solving for Ux, Initial residual = 7.36945e-05, Final residual = 4.29642e-06, No Iterations 4
smoothSolver:  Solving for Uy, Initial residual = 0.000141761, Final residual = 9.50726e-06, No Iterations 4
GAMG:  Solving for p, Initial residual = 8.53113e-05, Final residual = 7.60261e-06, No Iterations 3
time step continuity errors : sum local = 2.17552e-06, global = -2.55389e-07, cumulative = 0.000734983
ExecutionTime = 8.27 s  ClockTime = 9 s

Time = 471

smoothSolver:  Solving for Ux, Initial residual = 7.35251e-05, Final residual = 4.28625e-06, No Iterations 4
smoothSolver:  Solving for Uy, Initial residual = 0.000141447, Final residual = 9.48613e-06, No Iterations 4
GAMG:  Solving for p, Initial residual = 8.5146e-05, Final residual = 7.58853e-06, No Iterations 3
time step continuity errors : sum local = 2.17096e-06, global = -2.54807e-07, cumulative = 0.000734728
ExecutionTime = 8.28 s  ClockTime = 9 s

Time = 472

smoothSolver:  Solving for Ux, Initial residual = 7.33546e-05, Final residual = 4.27603e-06, No Iterations 4
smoothSolver:  Solving for Uy, Initial residual = 0.000141132, Final residual = 9.46485e-06, No Iterations 4
GAMG:  Solving for p, Initial residual = 8.49809e-05, Final residual = 7.57441e-06, No Iterations 3
time step continuity errors : sum local = 2.1664e-06, global = -2.54219e-07, cumulative = 0.000734474
ExecutionTime = 8.3 s  ClockTime = 9 s

Time = 473

smoothSolver:  Solving for Ux, Initial residual = 7.3183e-05, Final residual = 4.26576e-06, No Iterations 4
smoothSolver:  Solving for Uy, Initial residual = 0.000140814, Final residual = 9.44344e-06, No Iterations 4
GAMG:  Solving for p, Initial residual = 8.48153e-05, Final residual = 7.56011e-06, No Iterations 3
time step continuity errors : sum local = 2.16179e-06, global = -2.53615e-07, cumulative = 0.00073422
ExecutionTime = 8.3 s  ClockTime = 9 s

Time = 474

smoothSolver:  Solving for Ux, Initial residual = 7.30103e-05, Final residual = 4.25542e-06, No Iterations 4
smoothSolver:  Solving for Uy, Initial residual = 0.000140494, Final residual = 9.42189e-06, No Iterations 4
GAMG:  Solving for p, Initial residual = 8.4649e-05, Final residual = 7.54562e-06, No Iterations 3
time step continuity errors : sum local = 2.15713e-06, global = -2.53002e-07, cumulative = 0.000733967
ExecutionTime = 8.31 s  ClockTime = 9 s

Time = 475

smoothSolver:  Solving for Ux, Initial residual = 7.28366e-05, Final residual = 4.24505e-06, No Iterations 4
smoothSolver:  Solving for Uy, Initial residual = 0.000140172, Final residual = 9.4002e-06, No Iterations 4
GAMG:  Solving for p, Initial residual = 8.44805e-05, Final residual = 7.53103e-06, No Iterations 3
time step continuity errors : sum local = 2.15244e-06, global = -2.52385e-07, cumulative = 0.000733715
ExecutionTime = 8.33 s  ClockTime = 9 s

Time = 476

smoothSolver:  Solving for Ux, Initial residual = 7.26617e-05, Final residual = 4.23462e-06, No Iterations 4
smoothSolver:  Solving for Uy, Initial residual = 0.000139847, Final residual = 9.37837e-06, No Iterations 4
GAMG:  Solving for p, Initial residual = 8.43083e-05, Final residual = 7.51632e-06, No Iterations 3
time step continuity errors : sum local = 2.14772e-06, global = -2.51768e-07, cumulative = 0.000733463
ExecutionTime = 8.34 s  ClockTime = 9 s

Time = 477

smoothSolver:  Solving for Ux, Initial residual = 7.24859e-05, Final residual = 4.22414e-06, No Iterations 4
smoothSolver:  Solving for Uy, Initial residual = 0.000139521, Final residual = 9.35641e-06, No Iterations 4
GAMG:  Solving for p, Initial residual = 8.41354e-05, Final residual = 7.50147e-06, No Iterations 3
time step continuity errors : sum local = 2.14297e-06, global = -2.51161e-07, cumulative = 0.000733212
ExecutionTime = 8.35 s  ClockTime = 9 s

Time = 478

smoothSolver:  Solving for Ux, Initial residual = 7.23089e-05, Final residual = 4.2136e-06, No Iterations 4
smoothSolver:  Solving for Uy, Initial residual = 0.000139192, Final residual = 9.33431e-06, No Iterations 4
GAMG:  Solving for p, Initial residual = 8.39617e-05, Final residual = 7.48646e-06, No Iterations 3
time step continuity errors : sum local = 2.13817e-06, global = -2.50543e-07, cumulative = 0.000732961
ExecutionTime = 8.36 s  ClockTime = 9 s

Time = 479

smoothSolver:  Solving for Ux, Initial residual = 7.21309e-05, Final residual = 4.20301e-06, No Iterations 4
smoothSolver:  Solving for Uy, Initial residual = 0.000138861, Final residual = 9.31206e-06, No Iterations 4
GAMG:  Solving for p, Initial residual = 8.37868e-05, Final residual = 7.47125e-06, No Iterations 3
time step continuity errors : sum local = 2.13332e-06, global = -2.49902e-07, cumulative = 0.000732711
ExecutionTime = 8.37 s  ClockTime = 9 s

Time = 480

smoothSolver:  Solving for Ux, Initial residual = 7.19519e-05, Final residual = 4.19238e-06, No Iterations 4
smoothSolver:  Solving for Uy, Initial residual = 0.000138528, Final residual = 9.28968e-06, No Iterations 4
GAMG:  Solving for p, Initial residual = 8.36092e-05, Final residual = 7.45583e-06, No Iterations 3
time step continuity errors : sum local = 2.12842e-06, global = -2.49243e-07, cumulative = 0.000732462
ExecutionTime = 8.41 s  ClockTime = 9 s

Time = 481

smoothSolver:  Solving for Ux, Initial residual = 7.17719e-05, Final residual = 4.1817e-06, No Iterations 4
smoothSolver:  Solving for Uy, Initial residual = 0.000138192, Final residual = 9.26717e-06, No Iterations 4
GAMG:  Solving for p, Initial residual = 8.34295e-05, Final residual = 7.44028e-06, No Iterations 3
time step continuity errors : sum local = 2.12348e-06, global = -2.48591e-07, cumulative = 0.000732213
ExecutionTime = 8.42 s  ClockTime = 9 s

Time = 482

smoothSolver:  Solving for Ux, Initial residual = 7.1591e-05, Final residual = 4.17095e-06, No Iterations 4
smoothSolver:  Solving for Uy, Initial residual = 0.000137855, Final residual = 9.24453e-06, No Iterations 4
GAMG:  Solving for p, Initial residual = 8.32497e-05, Final residual = 7.42459e-06, No Iterations 3
time step continuity errors : sum local = 2.11851e-06, global = -2.47939e-07, cumulative = 0.000731966
ExecutionTime = 8.43 s  ClockTime = 9 s

Time = 483

smoothSolver:  Solving for Ux, Initial residual = 7.1409e-05, Final residual = 4.16016e-06, No Iterations 4
smoothSolver:  Solving for Uy, Initial residual = 0.000137516, Final residual = 9.22175e-06, No Iterations 4
GAMG:  Solving for p, Initial residual = 8.30671e-05, Final residual = 7.40874e-06, No Iterations 3
time step continuity errors : sum local = 2.11349e-06, global = -2.47282e-07, cumulative = 0.000731718
ExecutionTime = 8.45 s  ClockTime = 9 s

Time = 484

smoothSolver:  Solving for Ux, Initial residual = 7.1226e-05, Final residual = 4.14933e-06, No Iterations 4
smoothSolver:  Solving for Uy, Initial residual = 0.000137174, Final residual = 9.19884e-06, No Iterations 4
GAMG:  Solving for p, Initial residual = 8.28827e-05, Final residual = 7.39272e-06, No Iterations 3
time step continuity errors : sum local = 2.10843e-06, global = -2.46618e-07, cumulative = 0.000731472
ExecutionTime = 8.45 s  ClockTime = 9 s

Time = 485

smoothSolver:  Solving for Ux, Initial residual = 7.10421e-05, Final residual = 4.13844e-06, No Iterations 4
smoothSolver:  Solving for Uy, Initial residual = 0.000136831, Final residual = 9.17581e-06, No Iterations 4
GAMG:  Solving for p, Initial residual = 8.26964e-05, Final residual = 7.37654e-06, No Iterations 3
time step continuity errors : sum local = 2.10333e-06, global = -2.45948e-07, cumulative = 0.000731226
ExecutionTime = 8.47 s  ClockTime = 9 s

Time = 486

smoothSolver:  Solving for Ux, Initial residual = 7.08572e-05, Final residual = 4.1275e-06, No Iterations 4
smoothSolver:  Solving for Uy, Initial residual = 0.000136486, Final residual = 9.15264e-06, No Iterations 4
GAMG:  Solving for p, Initial residual = 8.2508e-05, Final residual = 7.36013e-06, No Iterations 3
time step continuity errors : sum local = 2.09817e-06, global = -2.45269e-07, cumulative = 0.00073098
ExecutionTime = 8.48 s  ClockTime = 9 s

Time = 487

smoothSolver:  Solving for Ux, Initial residual = 7.06714e-05, Final residual = 4.11652e-06, No Iterations 4
smoothSolver:  Solving for Uy, Initial residual = 0.000136138, Final residual = 9.12935e-06, No Iterations 4
GAMG:  Solving for p, Initial residual = 8.23139e-05, Final residual = 7.34345e-06, No Iterations 3
time step continuity errors : sum local = 2.09294e-06, global = -2.44597e-07, cumulative = 0.000730736
ExecutionTime = 8.49 s  ClockTime = 9 s

Time = 488

smoothSolver:  Solving for Ux, Initial residual = 7.04846e-05, Final residual = 4.10548e-06, No Iterations 4
smoothSolver:  Solving for Uy, Initial residual = 0.000135789, Final residual = 9.10594e-06, No Iterations 4
GAMG:  Solving for p, Initial residual = 8.21191e-05, Final residual = 7.32669e-06, No Iterations 3
time step continuity errors : sum local = 2.08768e-06, global = -2.43927e-07, cumulative = 0.000730492
ExecutionTime = 8.51 s  ClockTime = 9 s

Time = 489

smoothSolver:  Solving for Ux, Initial residual = 7.02969e-05, Final residual = 4.0944e-06, No Iterations 4
smoothSolver:  Solving for Uy, Initial residual = 0.000135438, Final residual = 9.0824e-06, No Iterations 4
GAMG:  Solving for p, Initial residual = 8.19251e-05, Final residual = 7.30991e-06, No Iterations 3
time step continuity errors : sum local = 2.08242e-06, global = -2.43256e-07, cumulative = 0.000730249
ExecutionTime = 8.52 s  ClockTime = 9 s

Time = 490

smoothSolver:  Solving for Ux, Initial residual = 7.01082e-05, Final residual = 4.08328e-06, No Iterations 4
smoothSolver:  Solving for Uy, Initial residual = 0.000135085, Final residual = 9.05874e-06, No Iterations 4
GAMG:  Solving for p, Initial residual = 8.1731e-05, Final residual = 7.29309e-06, No Iterations 3
time step continuity errors : sum local = 2.07716e-06, global = -2.42594e-07, cumulative = 0.000730006
ExecutionTime = 8.55 s  ClockTime = 9 s

Time = 491

smoothSolver:  Solving for Ux, Initial residual = 6.99186e-05, Final residual = 4.0721e-06, No Iterations 4
smoothSolver:  Solving for Uy, Initial residual = 0.00013473, Final residual = 9.03497e-06, No Iterations 4
GAMG:  Solving for p, Initial residual = 8.15358e-05, Final residual = 7.27618e-06, No Iterations 3
time step continuity errors : sum local = 2.07188e-06, global = -2.41934e-07, cumulative = 0.000729764
ExecutionTime = 8.56 s  ClockTime = 9 s

Time = 492

smoothSolver:  Solving for Ux, Initial residual = 6.97281e-05, Final residual = 4.06088e-06, No Iterations 4
smoothSolver:  Solving for Uy, Initial residual = 0.000134373, Final residual = 9.01107e-06, No Iterations 4
GAMG:  Solving for p, Initial residual = 8.13368e-05, Final residual = 7.2591e-06, No Iterations 3
time step continuity errors : sum local = 2.06655e-06, global = -2.41266e-07, cumulative = 0.000729523
ExecutionTime = 8.57 s  ClockTime = 9 s

Time = 493

smoothSolver:  Solving for Ux, Initial residual = 6.95367e-05, Final residual = 4.04961e-06, No Iterations 4
smoothSolver:  Solving for Uy, Initial residual = 0.000134014, Final residual = 8.98706e-06, No Iterations 4
GAMG:  Solving for p, Initial residual = 8.11348e-05, Final residual = 7.24182e-06, No Iterations 3
time step continuity errors : sum local = 2.06116e-06, global = -2.40577e-07, cumulative = 0.000729282
ExecutionTime = 8.58 s  ClockTime = 9 s

Time = 494

smoothSolver:  Solving for Ux, Initial residual = 6.93444e-05, Final residual = 4.0383e-06, No Iterations 4
smoothSolver:  Solving for Uy, Initial residual = 0.000133654, Final residual = 8.96292e-06, No Iterations 4
GAMG:  Solving for p, Initial residual = 8.09331e-05, Final residual = 7.22446e-06, No Iterations 3
time step continuity errors : sum local = 2.05576e-06, global = -2.39869e-07, cumulative = 0.000729042
ExecutionTime = 8.59 s  ClockTime = 9 s

Time = 495

smoothSolver:  Solving for Ux, Initial residual = 6.91512e-05, Final residual = 4.02695e-06, No Iterations 4
smoothSolver:  Solving for Uy, Initial residual = 0.000133291, Final residual = 8.93867e-06, No Iterations 4
GAMG:  Solving for p, Initial residual = 8.07321e-05, Final residual = 7.20707e-06, No Iterations 3
time step continuity errors : sum local = 2.05036e-06, global = -2.39163e-07, cumulative = 0.000728803
ExecutionTime = 8.6 s  ClockTime = 9 s

Time = 496

smoothSolver:  Solving for Ux, Initial residual = 6.89572e-05, Final residual = 4.01555e-06, No Iterations 4
smoothSolver:  Solving for Uy, Initial residual = 0.000132927, Final residual = 8.9143e-06, No Iterations 4
GAMG:  Solving for p, Initial residual = 8.05317e-05, Final residual = 7.18959e-06, No Iterations 3
time step continuity errors : sum local = 2.04493e-06, global = -2.38465e-07, cumulative = 0.000728565
ExecutionTime = 8.61 s  ClockTime = 9 s

Time = 497

smoothSolver:  Solving for Ux, Initial residual = 6.87622e-05, Final residual = 4.0041e-06, No Iterations 4
smoothSolver:  Solving for Uy, Initial residual = 0.000132561, Final residual = 8.88982e-06, No Iterations 4
GAMG:  Solving for p, Initial residual = 8.03308e-05, Final residual = 7.17195e-06, No Iterations 3
time step continuity errors : sum local = 2.03946e-06, global = -2.37764e-07, cumulative = 0.000728327
ExecutionTime = 8.62 s  ClockTime = 9 s

Time = 498

smoothSolver:  Solving for Ux, Initial residual = 6.85664e-05, Final residual = 3.99262e-06, No Iterations 4
smoothSolver:  Solving for Uy, Initial residual = 0.000132193, Final residual = 8.86523e-06, No Iterations 4
GAMG:  Solving for p, Initial residual = 8.01297e-05, Final residual = 7.15417e-06, No Iterations 3
time step continuity errors : sum local = 2.03395e-06, global = -2.3705e-07, cumulative = 0.00072809
ExecutionTime = 8.63 s  ClockTime = 9 s

Time = 499

smoothSolver:  Solving for Ux, Initial residual = 6.83698e-05, Final residual = 3.98108e-06, No Iterations 4
smoothSolver:  Solving for Uy, Initial residual = 0.000131823, Final residual = 8.84052e-06, No Iterations 4
GAMG:  Solving for p, Initial residual = 7.99281e-05, Final residual = 7.13612e-06, No Iterations 3
time step continuity errors : sum local = 2.02838e-06, global = -2.36319e-07, cumulative = 0.000727854
ExecutionTime = 8.64 s  ClockTime = 9 s

Time = 500

smoothSolver:  Solving for Ux, Initial residual = 6.81724e-05, Final residual = 3.96952e-06, No Iterations 4
smoothSolver:  Solving for Uy, Initial residual = 0.000131452, Final residual = 8.8157e-06, No Iterations 4
GAMG:  Solving for p, Initial residual = 7.9725e-05, Final residual = 7.11791e-06, No Iterations 3
time step continuity errors : sum local = 2.02276e-06, global = -2.35574e-07, cumulative = 0.000727618
ExecutionTime = 8.68 s  ClockTime = 9 s

End

Finalising parallel run
