/*---------------------------------------------------------------------------*\
| =========                 |                                                 |
| \\      /  F ield         | OpenFOAM: The Open Source CFD Toolbox           |
|  \\    /   O peration     | Version:  v1912                                 |
|   \\  /    A nd           | Website:  www.openfoam.com                      |
|    \\/     M anipulation  |                                                 |
\*---------------------------------------------------------------------------*/
Build  : _f3950763fe-20191219 OPENFOAM=1912
Arch   : "LSB;label=32;scalar=64"
Exec   : snappyHexMesh -overwrite
Date   : Nov 18 2020
Time   : 00:30:01
Host   : 53bbc2ec95fa
PID    : 2401
I/O    : uncollated
Case   : /home/hao/OpenFOAM/hao-v1912/diffuser_2d/tunner
nProcs : 1
trapFpe: Floating point exception trapping enabled (FOAM_SIGFPE).
fileModificationChecking : Monitoring run-time modified files using timeStampMaster (fileModificationSkew 10)
allowSystemOperations : Allowing user-supplied system call operations

// * * * * * * * * * * * * * * * * * * * * * * * * * * * * * * * * * * * * * //
Create time

Create mesh for time = 0

Read mesh in = 0.28 s

Overall mesh bounding box  : (0 -2.6 -0.5) (2.1 0.5 0.5)
Relative tolerance         : 1e-06
Absolute matching distance : 3.87556e-06

Reading refinement surfaces.
Read refinement surfaces in = 0.02 s

Reading refinement shells.
Read refinement shells in = 0 s

Setting refinement level of surface to be consistent with shells.
For geometry vane1.stl detected 0 uncached triangles out of 272
For geometry vane2.stl detected 0 uncached triangles out of 272
For geometry vane3.stl detected 0 uncached triangles out of 272
For geometry vane4.stl detected 0 uncached triangles out of 272
For geometry vane5.stl detected 0 uncached triangles out of 272
For geometry vane6.stl detected 0 uncached triangles out of 272
For geometry vane7.stl detected 0 uncached triangles out of 272
For geometry vane8.stl detected 0 uncached triangles out of 272
For geometry vane9.stl detected 0 uncached triangles out of 272
For geometry vane10.stl detected 0 uncached triangles out of 272
For geometry vane11.stl detected 0 uncached triangles out of 272
For geometry vane12.stl detected 0 uncached triangles out of 272
For geometry vane13.stl detected 0 uncached triangles out of 272
For geometry vane14.stl detected 0 uncached triangles out of 272
For geometry vane15.stl detected 0 uncached triangles out of 272
For geometry vane16.stl detected 0 uncached triangles out of 272
For geometry vane17.stl detected 0 uncached triangles out of 272
For geometry vane18.stl detected 0 uncached triangles out of 272
Checked shell refinement in = 0.03 s

Reading features.
Read edgeMesh vane1.eMesh
    points      : 138
    edges       : 145
    boundingBox : (1.04999 -0.547007 -1) (1.15488 -0.442124 1)

Refinement level according to distance to "vane1.eMesh" (138 points, 145 edges).
    level 2 for all cells within 0 metre.
Read edgeMesh vane2.eMesh
    points      : 138
    edges       : 145
    boundingBox : (1.10999 -0.495007 -1) (1.21488 -0.390124 1)

Refinement level according to distance to "vane2.eMesh" (138 points, 145 edges).
    level 2 for all cells within 0 metre.
Read edgeMesh vane3.eMesh
    points      : 138
    edges       : 145
    boundingBox : (1.15999 -0.442007 -1) (1.26488 -0.337124 1)

Refinement level according to distance to "vane3.eMesh" (138 points, 145 edges).
    level 2 for all cells within 0 metre.
Read edgeMesh vane4.eMesh
    points      : 138
    edges       : 145
    boundingBox : (1.20999 -0.389007 -1) (1.31488 -0.284124 1)

Refinement level according to distance to "vane4.eMesh" (138 points, 145 edges).
    level 2 for all cells within 0 metre.
Read edgeMesh vane5.eMesh
    points      : 138
    edges       : 145
    boundingBox : (1.25999 -0.337007 -1) (1.36488 -0.232124 1)

Refinement level according to distance to "vane5.eMesh" (138 points, 145 edges).
    level 2 for all cells within 0 metre.
Read edgeMesh vane6.eMesh
    points      : 138
    edges       : 145
    boundingBox : (1.31999 -0.284007 -1) (1.42488 -0.179124 1)

Refinement level according to distance to "vane6.eMesh" (138 points, 145 edges).
    level 2 for all cells within 0 metre.
Read edgeMesh vane7.eMesh
    points      : 138
    edges       : 145
    boundingBox : (1.36999 -0.232007 -1) (1.47488 -0.127124 1)

Refinement level according to distance to "vane7.eMesh" (138 points, 145 edges).
    level 2 for all cells within 0 metre.
Read edgeMesh vane8.eMesh
    points      : 138
    edges       : 145
    boundingBox : (1.41999 -0.179007 -1) (1.52488 -0.0741238 1)

Refinement level according to distance to "vane8.eMesh" (138 points, 145 edges).
    level 2 for all cells within 0 metre.
Read edgeMesh vane9.eMesh
    points      : 138
    edges       : 145
    boundingBox : (1.46999 -0.126307 -1) (1.57488 -0.0214238 1)

Refinement level according to distance to "vane9.eMesh" (138 points, 145 edges).
    level 2 for all cells within 0 metre.
Read edgeMesh vane10.eMesh
    points      : 138
    edges       : 145
    boundingBox : (1.52999 -0.0737075 -1) (1.63488 0.0311762 1)

Refinement level according to distance to "vane10.eMesh" (138 points, 145 edges).
    level 2 for all cells within 0 metre.
Read edgeMesh vane11.eMesh
    points      : 138
    edges       : 145
    boundingBox : (1.57999 -0.0211075 -1) (1.68488 0.0837762 1)

Refinement level according to distance to "vane11.eMesh" (138 points, 145 edges).
    level 2 for all cells within 0 metre.
Read edgeMesh vane12.eMesh
    points      : 138
    edges       : 145
    boundingBox : (1.62999 0.0315925 -1) (1.73488 0.136476 1)

Refinement level according to distance to "vane12.eMesh" (138 points, 145 edges).
    level 2 for all cells within 0 metre.
Read edgeMesh vane13.eMesh
    points      : 138
    edges       : 145
    boundingBox : (1.67999 0.0839925 -1) (1.78488 0.188876 1)

Refinement level according to distance to "vane13.eMesh" (138 points, 145 edges).
    level 2 for all cells within 0 metre.
Read edgeMesh vane14.eMesh
    points      : 138
    edges       : 145
    boundingBox : (1.73999 0.136993 -1) (1.84488 0.241876 1)

Refinement level according to distance to "vane14.eMesh" (138 points, 145 edges).
    level 2 for all cells within 0 metre.
Read edgeMesh vane15.eMesh
    points      : 138
    edges       : 145
    boundingBox : (1.78999 0.188993 -1) (1.89488 0.293876 1)

Refinement level according to distance to "vane15.eMesh" (138 points, 145 edges).
    level 2 for all cells within 0 metre.
Read edgeMesh vane16.eMesh
    points      : 138
    edges       : 145
    boundingBox : (1.83999 0.241993 -1) (1.94488 0.346876 1)

Refinement level according to distance to "vane16.eMesh" (138 points, 145 edges).
    level 2 for all cells within 0 metre.
Read edgeMesh vane17.eMesh
    points      : 138
    edges       : 145
    boundingBox : (1.88999 0.294993 -1) (1.99488 0.399876 1)

Refinement level according to distance to "vane17.eMesh" (138 points, 145 edges).
    level 2 for all cells within 0 metre.
Read edgeMesh vane18.eMesh
    points      : 138
    edges       : 145
    boundingBox : (1.94999 0.346993 -1) (2.05488 0.451876 1)

Refinement level according to distance to "vane18.eMesh" (138 points, 145 edges).
    level 2 for all cells within 0 metre.
Read features in = 0.02 s


Determining initial surface intersections
-----------------------------------------

Edge intersection testing:
    Number of edges             : 81614
    Number of edges to retest   : 0
    Number of intersected edges : 0
Edge intersection testing:
    Number of edges             : 81614
    Number of edges to retest   : 81614
    Number of intersected edges : 469
Calculated surface intersections in = 0.26 s

Initial mesh : cells:20320  faces:81614  points:41310
Cells per refinement level:
    0	20320

Adding patches for surface regions
----------------------------------

Patch Type                Region                        
----- ----                ------                        
vane1:

5     wall                vane1                         

vane2:

6     wall                vane2                         

vane3:

7     wall                vane3                         

vane4:

8     wall                vane4                         

vane5:

9     wall                vane5                         

vane6:

10    wall                vane6                         

vane7:

11    wall                vane7                         

vane8:

12    wall                vane8                         

vane9:

13    wall                vane9                         

vane10:

14    wall                vane10                        

vane11:

15    wall                vane11                        

vane12:

16    wall                vane12                        

vane13:

17    wall                vane13                        

vane14:

18    wall                vane14                        

vane15:

19    wall                vane15                        

vane16:

20    wall                vane16                        

vane17:

21    wall                vane17                        

vane18:

22    wall                vane18                        

Added patches in = 0.01 s


Adding patches for face zones
-----------------------------

Patch Type                Name                          FaceZone                      FaceType  
----- ----                ----                          --------                      --------  
23    wall                interface1interface20CutFaceZoneinterface1interface20CutFaceZoneinternal  
24    wall                interface1interface20CutFaceZone_slaveinterface1interface20CutFaceZoneinternal  
25    wall                interface1interface20SlaveZoneinterface1interface20SlaveZoneinternal  
26    wall                interface1interface20SlaveZone_slaveinterface1interface20SlaveZoneinternal  
27    wall                interface1interface20MasterZoneinterface1interface20MasterZoneinternal  
28    wall                interface1interface20MasterZone_slaveinterface1interface20MasterZoneinternal  
29    wall                interface3interface41SlaveZoneinterface3interface41SlaveZoneinternal  
30    wall                interface3interface41SlaveZone_slaveinterface3interface41SlaveZoneinternal  
31    wall                interface3interface41MasterZoneinterface3interface41MasterZoneinternal  
32    wall                interface3interface41MasterZone_slaveinterface3interface41MasterZoneinternal  
33    wall                interface3interface41CutFaceZoneinterface3interface41CutFaceZoneinternal  
34    wall                interface3interface41CutFaceZone_slaveinterface3interface41CutFaceZoneinternal  

Edge intersection testing:
    Number of edges             : 81614
    Number of edges to retest   : 0
    Number of intersected edges : 469
Selecting decompositionMethod none [1]

Refinement phase
----------------

Found point (0.05 0 0) in cell 3202 on processor 0

Feature refinement iteration 0
------------------------------

Marked for refinement due to explicit features             : 0 cells.
Determined cells to refine in = 0.2 s
Selected for feature refinement : 0 cells (out of 20320)
Stopping refining since too few cells selected.


Surface refinement iteration 0
------------------------------

Marked for refinement due to surface intersection          : 707 cells.
Determined cells to refine in = 0 s
Selected for refinement : 707 cells (out of 20320)
Edge intersection testing:
    Number of edges             : 99587
    Number of edges to retest   : 22893
    Number of intersected edges : 2176
Refined mesh in = 0.2 s
After refinement surface refinement iteration 0 : cells:25269  faces:99587  points:49738
Cells per refinement level:
    0	19613
    1	5656

Surface refinement iteration 1
------------------------------

Marked for refinement due to surface intersection          : 3328 cells.
Determined cells to refine in = 0.01 s
Selected for refinement : 3462 cells (out of 25269)
Edge intersection testing:
    Number of edges             : 181376
    Number of edges to retest   : 102450
    Number of intersected edges : 8782
Refined mesh in = 0.51 s
After refinement surface refinement iteration 1 : cells:49503  faces:181376  points:83714
Cells per refinement level:
    0	19465
    1	3526
    2	26512

Surface refinement iteration 2
------------------------------

Marked for refinement due to surface intersection          : 62 cells.
Determined cells to refine in = 0.02 s
Selected for refinement : 74 cells (out of 49503)
Edge intersection testing:
    Number of edges             : 183122
    Number of edges to retest   : 4320
    Number of intersected edges : 8812
Refined mesh in = 0.29 s
After refinement surface refinement iteration 2 : cells:50021  faces:183122  points:84436
Cells per refinement level:
    0	19453
    1	3560
    2	27008

Surface refinement iteration 3
------------------------------

Marked for refinement due to surface intersection          : 0 cells.
Determined cells to refine in = 0.01 s
Selected for refinement : 0 cells (out of 50021)
Stopping refining since too few cells selected.


Removing mesh beyond surface intersections
------------------------------------------

Setting cellZones according to locationsInMesh:
Location : (0.05 0 0)
    cellZone : none

For cellZone none found point (0.05 0 0) in global region 0 out of 19 regions.
Keeping all cells containing inside points
Selected for keeping : 50021 cells.
Edge intersection testing:
    Number of edges             : 183122
    Number of edges to retest   : 0
    Number of intersected edges : 8812
Setting cellZones according to locationsInMesh:
Location : (0.05 0 0)
    cellZone : none

For cellZone none found point (0.05 0 0) in global region 0 out of 19 regions.
Keeping all cells containing inside points
Selected for keeping : 49099 cells.
Edge intersection testing:
    Number of edges             : 181807
    Number of edges to retest   : 2902
    Number of intersected edges : 8812

Shell refinement iteration 0
----------------------------

Marked for refinement due to distance to explicit features : 0 cells.
Marked for refinement due to refinement shells             : 0 cells.
Determined cells to refine in = 0.6 s
Selected for internal refinement : 0 cells (out of 49099)
Stopping refining since too few cells selected.


Dangling coarse cells refinement iteration 0
--------------------------------------------

Determined cells to refine in = 0.01 s
Selected for refinement : 0 cells (out of 49099)
Stopping refining since too few cells selected.


Dangling coarse cells refinement iteration 0
--------------------------------------------

Determined cells to refine in = 0 s
Selected for refinement : 0 cells (out of 49099)
Stopping refining since too few cells selected.


Refinement transition refinement iteration 0
--------------------------------------------

Determined cells to refine in = 0.01 s
Selected for refinement : 0 cells (out of 49099)
Stopping refining since too few cells selected.


Splitting mesh at surface intersections
---------------------------------------

Introducing baffles for 8812 faces that are intersected by the surface.

Setting cellZones according to locationsInMesh:
Location : (0.05 0 0)
    cellZone : none

For cellZone none found point (0.05 0 0) in global region 0 out of 19 regions.
Edge intersection testing:
    Number of edges             : 190619
    Number of edges to retest   : 69324
    Number of intersected edges : 16788
Created baffles in = 0.42 s


After introducing baffles : cells:49099  faces:190619  points:84436
Cells per refinement level:
    0	19453
    1	3560
    2	26086

Introducing baffles to block off problem cells
----------------------------------------------

markFacesOnProblemCells : marked 5296 additional internal faces to be converted into baffles.
Analyzed problem cells in = 0.14 s


Introducing baffles to delete problem cells.

Edge intersection testing:
    Number of edges             : 195915
    Number of edges to retest   : 24599
    Number of intersected edges : 17232
Created baffles in = 0.25 s


After introducing baffles : cells:49099  faces:195915  points:84436
Cells per refinement level:
    0	19453
    1	3560
    2	26086
Setting cellZones according to locationsInMesh:
Location : (0.05 0 0)
    cellZone : none

For cellZone none found point (0.05 0 0) in global region 0 out of 2121 regions.
Edge intersection testing:
    Number of edges             : 195915
    Number of edges to retest   : 73294
    Number of intersected edges : 17232

Remove unreachable sections of mesh
-----------------------------------

Keeping all cells containing points 1((0.05 0 0))
Selected for keeping : 39761 cells.
Edge intersection testing:
    Number of edges             : 154173
    Number of edges to retest   : 0
    Number of intersected edges : 8344
Split mesh in = 0.69 s


After subsetting : cells:39761  faces:154173  points:76986
Cells per refinement level:
    0	19453
    1	3560
    2	16748

Introducing zones for interfaces
--------------------------------

Setting cellZones according to locationsInMesh:
Location : (0.05 0 0)
    cellZone : none

For cellZone none found point (0.05 0 0) in global region 0 out of 1 regions.
Setting faceZones according to neighbouring cellZones:

FaceZones:
    interface1interface20MasterZone	size:528
    interface1interface20SlaveZone	size:0
    interface1interface20CutFaceZone	size:0
    interface3interface41MasterZone	size:518
    interface3interface41SlaveZone	size:0
    interface3interface41CutFaceZone	size:0

Edge intersection testing:
    Number of edges             : 154173
    Number of edges to retest   : 0
    Number of intersected edges : 8344

Handling cells with snap problems
---------------------------------

Introducing baffles for 8344 faces that are intersected by the surface.

Setting cellZones according to locationsInMesh:
Location : (0.05 0 0)
    cellZone : none

For cellZone none found point (0.05 0 0) in global region 0 out of 1 regions.
Edge intersection testing:
    Number of edges             : 154173
    Number of edges to retest   : 35370
    Number of intersected edges : 8344
Created baffles in = 0.54 s


After introducing baffles : cells:39761  faces:154173  points:76986
Cells per refinement level:
    0	19453
    1	3560
    2	16748

Introducing baffles to block off problem cells
----------------------------------------------

markFacesOnProblemCells : marked 0 additional internal faces to be converted into baffles.
Analyzed problem cells in = 0.11 s


Introducing baffles to delete problem cells.

Created baffles in = 0.02 s


After introducing baffles : cells:39761  faces:154173  points:76986
Cells per refinement level:
    0	19453
    1	3560
    2	16748
Setting cellZones according to locationsInMesh:
Location : (0.05 0 0)
    cellZone : none

For cellZone none found point (0.05 0 0) in global region 0 out of 1 regions.
Edge intersection testing:
    Number of edges             : 154173
    Number of edges to retest   : 35370
    Number of intersected edges : 8344

Remove unreachable sections of mesh
-----------------------------------

Split mesh in = 0.32 s


After subsetting : cells:39761  faces:154173  points:76986
Cells per refinement level:
    0	19453
    1	3560
    2	16748

Merge free-standing baffles
---------------------------

freeStandingBaffles : detected 24 free-standing baffles out of 24

freeStandingBaffles : detected 24 planar (within 60 degrees) free-standing baffles out of 24

Detected free-standing baffles : 24
Edge intersection testing:
    Number of edges             : 154149
    Number of edges to retest   : 24
    Number of intersected edges : 8340

Introducing baffles to block off problem cells
----------------------------------------------

markFacesOnProblemCells : marked 0 additional internal faces to be converted into baffles.
Analyzed problem cells in = 0.37 s


Introducing baffles to delete problem cells.

Created baffles in = 0.03 s


After introducing baffles : cells:39761  faces:154149  points:76986
Cells per refinement level:
    0	19453
    1	3560
    2	16748

Remove unreachable sections of mesh
-----------------------------------

Merged free-standing baffles in = 0.04 s


dupNonManifoldPoints : Found : 0 non-manifold points (out of 76986)
Detected unsplittable baffles : 0

Merge refined boundary faces
----------------------------

Merging 0 sets of faces.

No faces merged ...

Merging all points on surface that
- are used by only two boundary faces and
- make an angle with a cosine of more than 0.707107.

No straight edges simplified and no points removed ...
Refined mesh : cells:39761  faces:154149  points:76986
Cells per refinement level:
    0	19453
    1	3560
    2	16748
Writing mesh to time constant
Wrote mesh in = 1 s.
Mesh refined in = 5.79 s.

Morphing phase
--------------

Converting zoned faces into baffles ...

FaceZone                      FaceType  nBaffles  
--------                      --------  --------  
interface1interface20MasterZoneinternal  472       
interface1interface20SlaveZoneinternal  0         
interface1interface20CutFaceZoneinternal  0         
interface3interface41MasterZoneinternal  458       
interface3interface41SlaveZoneinternal  0         
interface3interface41CutFaceZoneinternal  0         

Edge intersection testing:
    Number of edges             : 155079
    Number of edges to retest   : 8152
    Number of intersected edges : 8388
Created 930 baffles in = 0.15 s


Duplicating 0 points on faceZones of type boundary
Snapping to features in 10 iterations ...
Constructing mesh displacer ...
Using mesh parameters 
{
    maxNonOrtho     60;
    maxBoundarySkewness 20;
    maxInternalSkewness 4;
    maxConcave      80;
    minVol          -1;
    minTetQuality   -1;
    minArea         -1;
    minTwist        0.01;
    minDeterminant  0.001;
    minFaceWeight   0.05;
    minVolRatio     0.01;
    minTriangleTwist -1;
    nSmoothScale    4;
    errorReduction  0.75;
    relaxed
    {
        maxNonOrtho     75;
    }
}


Checking initial mesh ...
Checking faces in error :
    non-orthogonality > 60  degrees                        : 12116
    faces with face pyramid volume < -1                    : 0
    faces with face-decomposition tet quality < -1         : 0
    faces with concavity > 80  degrees                     : 0
    faces with skewness > 4   (internal) or 20  (boundary) : 0
    faces with interpolation weights (0..1)  < 0.05        : 0
    faces with volume ratio of neighbour cells < 0.01      : 0
    faces with face twist < 0.01                           : 0
    faces on cells with determinant < 0.001                : 0
Detected 12116 illegal faces (concave, zero area or negative cell pyramid volume)
Checked initial mesh in = 0.25 s


Smoothing patch points ...
Smoothing iteration 0
Found 0 non-manifold point(s).

Scaling iteration 0
Moving mesh using displacement scaling : min:1  max:1
Correcting 2-D mesh motion--> FOAM Warning : 
    From function void Foam::twoDPointCorrector::calcAddressing() const
    in file twoDPointCorrector/twoDPointCorrector.C at line 162
    The number of points in the mesh is not equal to twice the number of edges normal to the plane - this may be OK only for wedge geometries.
    Please check the geometry or adjust the orthogonality tolerance.

Number of normal edges: 49189 number of points: 76986
 ...done
Checking faces in error :
    non-orthogonality > 60  degrees                        : 12640
    faces with face pyramid volume < -1                    : 0
    faces with face-decomposition tet quality < -1         : 0
    faces with concavity > 80  degrees                     : 0
    faces with skewness > 4   (internal) or 20  (boundary) : 0
    faces with interpolation weights (0..1)  < 0.05        : 0
    faces with volume ratio of neighbour cells < 0.01      : 0
    faces with face twist < 0.01                           : 0
    faces on cells with determinant < 0.001                : 0

Scaling iteration 1
Moving mesh using displacement scaling : min:0.75  max:1
Correcting 2-D mesh motion ...done
Checking faces in error :
    non-orthogonality > 60  degrees                        : 12640
    faces with face pyramid volume < -1                    : 0
    faces with face-decomposition tet quality < -1         : 0
    faces with concavity > 80  degrees                     : 0
    faces with skewness > 4   (internal) or 20  (boundary) : 0
    faces with interpolation weights (0..1)  < 0.05        : 0
    faces with volume ratio of neighbour cells < 0.01      : 0
    faces with face twist < 0.01                           : 0
    faces on cells with determinant < 0.001                : 0

Scaling iteration 2
Moving mesh using displacement scaling : min:0.5625  max:1
Correcting 2-D mesh motion ...done
Checking faces in error :
    non-orthogonality > 60  degrees                        : 12640
    faces with face pyramid volume < -1                    : 0
    faces with face-decomposition tet quality < -1         : 0
    faces with concavity > 80  degrees                     : 0
    faces with skewness > 4   (internal) or 20  (boundary) : 0
    faces with interpolation weights (0..1)  < 0.05        : 0
    faces with volume ratio of neighbour cells < 0.01      : 0
    faces with face twist < 0.01                           : 0
    faces on cells with determinant < 0.001                : 0

Scaling iteration 3
Moving mesh using displacement scaling : min:0.421875  max:1
Correcting 2-D mesh motion ...done
Checking faces in error :
    non-orthogonality > 60  degrees                        : 12640
    faces with face pyramid volume < -1                    : 0
    faces with face-decomposition tet quality < -1         : 0
    faces with concavity > 80  degrees                     : 0
    faces with skewness > 4   (internal) or 20  (boundary) : 0
    faces with interpolation weights (0..1)  < 0.05        : 0
    faces with volume ratio of neighbour cells < 0.01      : 0
    faces with face twist < 0.01                           : 0
    faces on cells with determinant < 0.001                : 0

Scaling iteration 4
Moving mesh using displacement scaling : min:0.316406  max:1
Correcting 2-D mesh motion ...done
Checking faces in error :
    non-orthogonality > 60  degrees                        : 12640
    faces with face pyramid volume < -1                    : 0
    faces with face-decomposition tet quality < -1         : 0
    faces with concavity > 80  degrees                     : 0
    faces with skewness > 4   (internal) or 20  (boundary) : 0
    faces with interpolation weights (0..1)  < 0.05        : 0
    faces with volume ratio of neighbour cells < 0.01      : 0
    faces with face twist < 0.01                           : 0
    faces on cells with determinant < 0.001                : 0

Scaling iteration 5
Displacement scaling for error reduction set to 0.
Moving mesh using displacement scaling : min:0.237305  max:1
Correcting 2-D mesh motion ...done
Checking faces in error :
    non-orthogonality > 60  degrees                        : 12640
    faces with face pyramid volume < -1                    : 0
    faces with face-decomposition tet quality < -1         : 0
    faces with concavity > 80  degrees                     : 0
    faces with skewness > 4   (internal) or 20  (boundary) : 0
    faces with interpolation weights (0..1)  < 0.05        : 0
    faces with volume ratio of neighbour cells < 0.01      : 0
    faces with face twist < 0.01                           : 0
    faces on cells with determinant < 0.001                : 0

Scaling iteration 6
Moving mesh using displacement scaling : min:0  max:1
Correcting 2-D mesh motion ...done
Checking faces in error :
    non-orthogonality > 60  degrees                        : 12640
    faces with face pyramid volume < -1                    : 0
    faces with face-decomposition tet quality < -1         : 0
    faces with concavity > 80  degrees                     : 0
    faces with skewness > 4   (internal) or 20  (boundary) : 0
    faces with interpolation weights (0..1)  < 0.05        : 0
    faces with volume ratio of neighbour cells < 0.01      : 0
    faces with face twist < 0.01                           : 0
    faces on cells with determinant < 0.001                : 0

Scaling iteration 7
Moving mesh using displacement scaling : min:0  max:1
Correcting 2-D mesh motion ...done
Checking faces in error :
    non-orthogonality > 60  degrees                        : 12640
    faces with face pyramid volume < -1                    : 0
    faces with face-decomposition tet quality < -1         : 0
    faces with concavity > 80  degrees                     : 0
    faces with skewness > 4   (internal) or 20  (boundary) : 0
    faces with interpolation weights (0..1)  < 0.05        : 0
    faces with volume ratio of neighbour cells < 0.01      : 0
    faces with face twist < 0.01                           : 0
    faces on cells with determinant < 0.001                : 0

Scaling iteration 8
Moving mesh using displacement scaling : min:0  max:1
Correcting 2-D mesh motion ...done
Checking faces in error :
    non-orthogonality > 60  degrees                        : 12640
    faces with face pyramid volume < -1                    : 0
    faces with face-decomposition tet quality < -1         : 0
    faces with concavity > 80  degrees                     : 0
    faces with skewness > 4   (internal) or 20  (boundary) : 0
    faces with interpolation weights (0..1)  < 0.05        : 0
    faces with volume ratio of neighbour cells < 0.01      : 0
    faces with face twist < 0.01                           : 0
    faces on cells with determinant < 0.001                : 0

Scaling iteration 9
Moving mesh using displacement scaling : min:0  max:1
Correcting 2-D mesh motion ...done
Checking faces in error :
    non-orthogonality > 60  degrees                        : 12640
    faces with face pyramid volume < -1                    : 0
    faces with face-decomposition tet quality < -1         : 0
    faces with concavity > 80  degrees                     : 0
    faces with skewness > 4   (internal) or 20  (boundary) : 0
    faces with interpolation weights (0..1)  < 0.05        : 0
    faces with volume ratio of neighbour cells < 0.01      : 0
    faces with face twist < 0.01                           : 0
    faces on cells with determinant < 0.001                : 0

Smoothing iteration 1
Found 0 non-manifold point(s).

Scaling iteration 0
Moving mesh using displacement scaling : min:1  max:1
Correcting 2-D mesh motion ...done
Checking faces in error :
    non-orthogonality > 60  degrees                        : 12640
    faces with face pyramid volume < -1                    : 0
    faces with face-decomposition tet quality < -1         : 0
    faces with concavity > 80  degrees                     : 0
    faces with skewness > 4   (internal) or 20  (boundary) : 0
    faces with interpolation weights (0..1)  < 0.05        : 0
    faces with volume ratio of neighbour cells < 0.01      : 0
    faces with face twist < 0.01                           : 0
    faces on cells with determinant < 0.001                : 0

Scaling iteration 1
Moving mesh using displacement scaling : min:0.75  max:1
Correcting 2-D mesh motion ...done
Checking faces in error :
    non-orthogonality > 60  degrees                        : 12640
    faces with face pyramid volume < -1                    : 0
    faces with face-decomposition tet quality < -1         : 0
    faces with concavity > 80  degrees                     : 0
    faces with skewness > 4   (internal) or 20  (boundary) : 0
    faces with interpolation weights (0..1)  < 0.05        : 0
    faces with volume ratio of neighbour cells < 0.01      : 0
    faces with face twist < 0.01                           : 0
    faces on cells with determinant < 0.001                : 0

Scaling iteration 2
Moving mesh using displacement scaling : min:0.5625  max:1
Correcting 2-D mesh motion ...done
Checking faces in error :
    non-orthogonality > 60  degrees                        : 12640
    faces with face pyramid volume < -1                    : 0
    faces with face-decomposition tet quality < -1         : 0
    faces with concavity > 80  degrees                     : 0
    faces with skewness > 4   (internal) or 20  (boundary) : 0
    faces with interpolation weights (0..1)  < 0.05        : 0
    faces with volume ratio of neighbour cells < 0.01      : 0
    faces with face twist < 0.01                           : 0
    faces on cells with determinant < 0.001                : 0

Scaling iteration 3
Moving mesh using displacement scaling : min:0.421875  max:1
Correcting 2-D mesh motion ...done
Checking faces in error :
    non-orthogonality > 60  degrees                        : 12640
    faces with face pyramid volume < -1                    : 0
    faces with face-decomposition tet quality < -1         : 0
    faces with concavity > 80  degrees                     : 0
    faces with skewness > 4   (internal) or 20  (boundary) : 0
    faces with interpolation weights (0..1)  < 0.05        : 0
    faces with volume ratio of neighbour cells < 0.01      : 0
    faces with face twist < 0.01                           : 0
    faces on cells with determinant < 0.001                : 0

Scaling iteration 4
Moving mesh using displacement scaling : min:0.316406  max:1
Correcting 2-D mesh motion ...done
Checking faces in error :
    non-orthogonality > 60  degrees                        : 12640
    faces with face pyramid volume < -1                    : 0
    faces with face-decomposition tet quality < -1         : 0
    faces with concavity > 80  degrees                     : 0
    faces with skewness > 4   (internal) or 20  (boundary) : 0
    faces with interpolation weights (0..1)  < 0.05        : 0
    faces with volume ratio of neighbour cells < 0.01      : 0
    faces with face twist < 0.01                           : 0
    faces on cells with determinant < 0.001                : 0

Scaling iteration 5
Displacement scaling for error reduction set to 0.
Moving mesh using displacement scaling : min:0.237305  max:1
Correcting 2-D mesh motion ...done
Checking faces in error :
    non-orthogonality > 60  degrees                        : 12640
    faces with face pyramid volume < -1                    : 0
    faces with face-decomposition tet quality < -1         : 0
    faces with concavity > 80  degrees                     : 0
    faces with skewness > 4   (internal) or 20  (boundary) : 0
    faces with interpolation weights (0..1)  < 0.05        : 0
    faces with volume ratio of neighbour cells < 0.01      : 0
    faces with face twist < 0.01                           : 0
    faces on cells with determinant < 0.001                : 0

Scaling iteration 6
Moving mesh using displacement scaling : min:0  max:1
Correcting 2-D mesh motion ...done
Checking faces in error :
    non-orthogonality > 60  degrees                        : 12640
    faces with face pyramid volume < -1                    : 0
    faces with face-decomposition tet quality < -1         : 0
    faces with concavity > 80  degrees                     : 0
    faces with skewness > 4   (internal) or 20  (boundary) : 0
    faces with interpolation weights (0..1)  < 0.05        : 0
    faces with volume ratio of neighbour cells < 0.01      : 0
    faces with face twist < 0.01                           : 0
    faces on cells with determinant < 0.001                : 0

Scaling iteration 7
Moving mesh using displacement scaling : min:0  max:1
Correcting 2-D mesh motion ...done
Checking faces in error :
    non-orthogonality > 60  degrees                        : 12640
    faces with face pyramid volume < -1                    : 0
    faces with face-decomposition tet quality < -1         : 0
    faces with concavity > 80  degrees                     : 0
    faces with skewness > 4   (internal) or 20  (boundary) : 0
    faces with interpolation weights (0..1)  < 0.05        : 0
    faces with volume ratio of neighbour cells < 0.01      : 0
    faces with face twist < 0.01                           : 0
    faces on cells with determinant < 0.001                : 0

Scaling iteration 8
Moving mesh using displacement scaling : min:0  max:1
Correcting 2-D mesh motion ...done
Checking faces in error :
    non-orthogonality > 60  degrees                        : 12640
    faces with face pyramid volume < -1                    : 0
    faces with face-decomposition tet quality < -1         : 0
    faces with concavity > 80  degrees                     : 0
    faces with skewness > 4   (internal) or 20  (boundary) : 0
    faces with interpolation weights (0..1)  < 0.05        : 0
    faces with volume ratio of neighbour cells < 0.01      : 0
    faces with face twist < 0.01                           : 0
    faces on cells with determinant < 0.001                : 0

Scaling iteration 9
Moving mesh using displacement scaling : min:0  max:1
Correcting 2-D mesh motion ...done
Checking faces in error :
    non-orthogonality > 60  degrees                        : 12640
    faces with face pyramid volume < -1                    : 0
    faces with face-decomposition tet quality < -1         : 0
    faces with concavity > 80  degrees                     : 0
    faces with skewness > 4   (internal) or 20  (boundary) : 0
    faces with interpolation weights (0..1)  < 0.05        : 0
    faces with volume ratio of neighbour cells < 0.01      : 0
    faces with face twist < 0.01                           : 0
    faces on cells with determinant < 0.001                : 0

Smoothing iteration 2
Found 0 non-manifold point(s).

Scaling iteration 0
Moving mesh using displacement scaling : min:1  max:1
Correcting 2-D mesh motion ...done
Checking faces in error :
    non-orthogonality > 60  degrees                        : 12640
    faces with face pyramid volume < -1                    : 0
    faces with face-decomposition tet quality < -1         : 0
    faces with concavity > 80  degrees                     : 0
    faces with skewness > 4   (internal) or 20  (boundary) : 0
    faces with interpolation weights (0..1)  < 0.05        : 0
    faces with volume ratio of neighbour cells < 0.01      : 0
    faces with face twist < 0.01                           : 0
    faces on cells with determinant < 0.001                : 0

Scaling iteration 1
Moving mesh using displacement scaling : min:0.75  max:1
Correcting 2-D mesh motion ...done
Checking faces in error :
    non-orthogonality > 60  degrees                        : 12640
    faces with face pyramid volume < -1                    : 0
    faces with face-decomposition tet quality < -1         : 0
    faces with concavity > 80  degrees                     : 0
    faces with skewness > 4   (internal) or 20  (boundary) : 0
    faces with interpolation weights (0..1)  < 0.05        : 0
    faces with volume ratio of neighbour cells < 0.01      : 0
    faces with face twist < 0.01                           : 0
    faces on cells with determinant < 0.001                : 0

Scaling iteration 2
Moving mesh using displacement scaling : min:0.5625  max:1
Correcting 2-D mesh motion ...done
Checking faces in error :
    non-orthogonality > 60  degrees                        : 12640
    faces with face pyramid volume < -1                    : 0
    faces with face-decomposition tet quality < -1         : 0
    faces with concavity > 80  degrees                     : 0
    faces with skewness > 4   (internal) or 20  (boundary) : 0
    faces with interpolation weights (0..1)  < 0.05        : 0
    faces with volume ratio of neighbour cells < 0.01      : 0
    faces with face twist < 0.01                           : 0
    faces on cells with determinant < 0.001                : 0

Scaling iteration 3
Moving mesh using displacement scaling : min:0.421875  max:1
Correcting 2-D mesh motion ...done
Checking faces in error :
    non-orthogonality > 60  degrees                        : 12640
    faces with face pyramid volume < -1                    : 0
    faces with face-decomposition tet quality < -1         : 0
    faces with concavity > 80  degrees                     : 0
    faces with skewness > 4   (internal) or 20  (boundary) : 0
    faces with interpolation weights (0..1)  < 0.05        : 0
    faces with volume ratio of neighbour cells < 0.01      : 0
    faces with face twist < 0.01                           : 0
    faces on cells with determinant < 0.001                : 0

Scaling iteration 4
Moving mesh using displacement scaling : min:0.316406  max:1
Correcting 2-D mesh motion ...done
Checking faces in error :
    non-orthogonality > 60  degrees                        : 12640
    faces with face pyramid volume < -1                    : 0
    faces with face-decomposition tet quality < -1         : 0
    faces with concavity > 80  degrees                     : 0
    faces with skewness > 4   (internal) or 20  (boundary) : 0
    faces with interpolation weights (0..1)  < 0.05        : 0
    faces with volume ratio of neighbour cells < 0.01      : 0
    faces with face twist < 0.01                           : 0
    faces on cells with determinant < 0.001                : 0

Scaling iteration 5
Displacement scaling for error reduction set to 0.
Moving mesh using displacement scaling : min:0.237305  max:1
Correcting 2-D mesh motion ...done
Checking faces in error :
    non-orthogonality > 60  degrees                        : 12640
    faces with face pyramid volume < -1                    : 0
    faces with face-decomposition tet quality < -1         : 0
    faces with concavity > 80  degrees                     : 0
    faces with skewness > 4   (internal) or 20  (boundary) : 0
    faces with interpolation weights (0..1)  < 0.05        : 0
    faces with volume ratio of neighbour cells < 0.01      : 0
    faces with face twist < 0.01                           : 0
    faces on cells with determinant < 0.001                : 0

Scaling iteration 6
Moving mesh using displacement scaling : min:0  max:1
Correcting 2-D mesh motion ...done
Checking faces in error :
    non-orthogonality > 60  degrees                        : 12640
    faces with face pyramid volume < -1                    : 0
    faces with face-decomposition tet quality < -1         : 0
    faces with concavity > 80  degrees                     : 0
    faces with skewness > 4   (internal) or 20  (boundary) : 0
    faces with interpolation weights (0..1)  < 0.05        : 0
    faces with volume ratio of neighbour cells < 0.01      : 0
    faces with face twist < 0.01                           : 0
    faces on cells with determinant < 0.001                : 0

Scaling iteration 7
Moving mesh using displacement scaling : min:0  max:1
Correcting 2-D mesh motion ...done
Checking faces in error :
    non-orthogonality > 60  degrees                        : 12640
    faces with face pyramid volume < -1                    : 0
    faces with face-decomposition tet quality < -1         : 0
    faces with concavity > 80  degrees                     : 0
    faces with skewness > 4   (internal) or 20  (boundary) : 0
    faces with interpolation weights (0..1)  < 0.05        : 0
    faces with volume ratio of neighbour cells < 0.01      : 0
    faces with face twist < 0.01                           : 0
    faces on cells with determinant < 0.001                : 0

Scaling iteration 8
Moving mesh using displacement scaling : min:0  max:1
Correcting 2-D mesh motion ...done
Checking faces in error :
    non-orthogonality > 60  degrees                        : 12640
    faces with face pyramid volume < -1                    : 0
    faces with face-decomposition tet quality < -1         : 0
    faces with concavity > 80  degrees                     : 0
    faces with skewness > 4   (internal) or 20  (boundary) : 0
    faces with interpolation weights (0..1)  < 0.05        : 0
    faces with volume ratio of neighbour cells < 0.01      : 0
    faces with face twist < 0.01                           : 0
    faces on cells with determinant < 0.001                : 0

Scaling iteration 9
Moving mesh using displacement scaling : min:0  max:1
Correcting 2-D mesh motion ...done
Checking faces in error :
    non-orthogonality > 60  degrees                        : 12640
    faces with face pyramid volume < -1                    : 0
    faces with face-decomposition tet quality < -1         : 0
    faces with concavity > 80  degrees                     : 0
    faces with skewness > 4   (internal) or 20  (boundary) : 0
    faces with interpolation weights (0..1)  < 0.05        : 0
    faces with volume ratio of neighbour cells < 0.01      : 0
    faces with face twist < 0.01                           : 0
    faces on cells with determinant < 0.001                : 0

Patch points smoothed in = 608.5 s



Morph iteration 0
-----------------
Calculating patchDisplacement as distance to nearest surface point ...
    non-zone points : attract to nearest of all non-zone surfaces
    zone points     : attract to zone surface only

Wanted displacement : average:0.00202448 min:5.25769e-08 max:0.069338
Calculated surface displacement in = 0.2 s


Detecting near surfaces ...
Overriding nearest with intersection of close gaps at 0 out of 12162 points.
Overriding displacement on features :
   implicit features    : true
   explicit features    : false
   multi-patch features : true

Attraction:
    linear   : max:(0.0468498 0.0511161 0) avg:(0.000160746 0.000159899 -2.69036e-13)
    feature  : max:(0.11114 -0.0540182 0) avg:(0.000234929 0.000192044 0)
Feature analysis : total master points :12162 of which attracted to :
    feature point   : 0
    feature edge    : 115
    nearest surface : 12047
    rest            : 0

--> FOAM Warning : Displacement (5.74526e-05 0.000127053 -1.51129e-08) at mesh point 65802 coord (1.05313 -0.446875 -0.25) points through the surrounding patch faces
Smoothing displacement ...
Iteration 0
Iteration 10
Iteration 20
Displacement smoothed in = 0.59 s


Moving mesh ...

Iteration 0
Moving mesh using displacement scaling : min:1  max:1
Correcting 2-D mesh motion ...done
Checking faces in error :
    non-orthogonality > 60  degrees                        : 12640
    faces with face pyramid volume < -1                    : 0
    faces with face-decomposition tet quality < -1         : 0
    faces with concavity > 80  degrees                     : 0
    faces with skewness > 4   (internal) or 20  (boundary) : 0
    faces with interpolation weights (0..1)  < 0.05        : 0
    faces with volume ratio of neighbour cells < 0.01      : 0
    faces with face twist < 0.01                           : 0
    faces on cells with determinant < 0.001                : 0

Iteration 1
Moving mesh using displacement scaling : min:0.75  max:1
Correcting 2-D mesh motion ...done
Checking faces in error :
    non-orthogonality > 60  degrees                        : 12640
    faces with face pyramid volume < -1                    : 0
    faces with face-decomposition tet quality < -1         : 0
    faces with concavity > 80  degrees                     : 0
    faces with skewness > 4   (internal) or 20  (boundary) : 0
    faces with interpolation weights (0..1)  < 0.05        : 0
    faces with volume ratio of neighbour cells < 0.01      : 0
    faces with face twist < 0.01                           : 0
    faces on cells with determinant < 0.001                : 0

Iteration 2
Moving mesh using displacement scaling : min:0.5625  max:1
Correcting 2-D mesh motion ...done
Checking faces in error :
    non-orthogonality > 60  degrees                        : 12640
    faces with face pyramid volume < -1                    : 0
    faces with face-decomposition tet quality < -1         : 0
    faces with concavity > 80  degrees                     : 0
    faces with skewness > 4   (internal) or 20  (boundary) : 0
    faces with interpolation weights (0..1)  < 0.05        : 0
    faces with volume ratio of neighbour cells < 0.01      : 0
    faces with face twist < 0.01                           : 0
    faces on cells with determinant < 0.001                : 0

Iteration 3
Moving mesh using displacement scaling : min:0.421875  max:1
Correcting 2-D mesh motion ...done
Checking faces in error :
    non-orthogonality > 60  degrees                        : 12640
    faces with face pyramid volume < -1                    : 0
    faces with face-decomposition tet quality < -1         : 0
    faces with concavity > 80  degrees                     : 0
    faces with skewness > 4   (internal) or 20  (boundary) : 0
    faces with interpolation weights (0..1)  < 0.05        : 0
    faces with volume ratio of neighbour cells < 0.01      : 0
    faces with face twist < 0.01                           : 0
    faces on cells with determinant < 0.001                : 0

Iteration 4
Moving mesh using displacement scaling : min:0.316406  max:1
Correcting 2-D mesh motion ...done
Checking faces in error :
    non-orthogonality > 60  degrees                        : 12640
    faces with face pyramid volume < -1                    : 0
    faces with face-decomposition tet quality < -1         : 0
    faces with concavity > 80  degrees                     : 0
    faces with skewness > 4   (internal) or 20  (boundary) : 0
    faces with interpolation weights (0..1)  < 0.05        : 0
    faces with volume ratio of neighbour cells < 0.01      : 0
    faces with face twist < 0.01                           : 0
    faces on cells with determinant < 0.001                : 0

Iteration 5
Displacement scaling for error reduction set to 0.
Moving mesh using displacement scaling : min:0.237305  max:1
Correcting 2-D mesh motion ...done
Checking faces in error :
    non-orthogonality > 60  degrees                        : 12640
    faces with face pyramid volume < -1                    : 0
    faces with face-decomposition tet quality < -1         : 0
    faces with concavity > 80  degrees                     : 0
    faces with skewness > 4   (internal) or 20  (boundary) : 0
    faces with interpolation weights (0..1)  < 0.05        : 0
    faces with volume ratio of neighbour cells < 0.01      : 0
    faces with face twist < 0.01                           : 0
    faces on cells with determinant < 0.001                : 0

Iteration 6
Moving mesh using displacement scaling : min:0  max:1
Correcting 2-D mesh motion ...done
Checking faces in error :
    non-orthogonality > 60  degrees                        : 12640
    faces with face pyramid volume < -1                    : 0
    faces with face-decomposition tet quality < -1         : 0
    faces with concavity > 80  degrees                     : 0
    faces with skewness > 4   (internal) or 20  (boundary) : 0
    faces with interpolation weights (0..1)  < 0.05        : 0
    faces with volume ratio of neighbour cells < 0.01      : 0
    faces with face twist < 0.01                           : 0
    faces on cells with determinant < 0.001                : 0

Iteration 7
Moving mesh using displacement scaling : min:0  max:1
Correcting 2-D mesh motion ...done
Checking faces in error :
    non-orthogonality > 60  degrees                        : 12640
    faces with face pyramid volume < -1                    : 0
    faces with face-decomposition tet quality < -1         : 0
    faces with concavity > 80  degrees                     : 0
    faces with skewness > 4   (internal) or 20  (boundary) : 0
    faces with interpolation weights (0..1)  < 0.05        : 0
    faces with volume ratio of neighbour cells < 0.01      : 0
    faces with face twist < 0.01                           : 0
    faces on cells with determinant < 0.001                : 0

Iteration 8
Moving mesh using displacement scaling : min:0  max:1
Correcting 2-D mesh motion ...done
Checking faces in error :
    non-orthogonality > 60  degrees                        : 12640
    faces with face pyramid volume < -1                    : 0
    faces with face-decomposition tet quality < -1         : 0
    faces with concavity > 80  degrees                     : 0
    faces with skewness > 4   (internal) or 20  (boundary) : 0
    faces with interpolation weights (0..1)  < 0.05        : 0
    faces with volume ratio of neighbour cells < 0.01      : 0
    faces with face twist < 0.01                           : 0
    faces on cells with determinant < 0.001                : 0

Iteration 9
Moving mesh using displacement scaling : min:0  max:1
Correcting 2-D mesh motion ...done
Checking faces in error :
    non-orthogonality > 60  degrees                        : 12640
    faces with face pyramid volume < -1                    : 0
    faces with face-decomposition tet quality < -1         : 0
    faces with concavity > 80  degrees                     : 0
    faces with skewness > 4   (internal) or 20  (boundary) : 0
    faces with interpolation weights (0..1)  < 0.05        : 0
    faces with volume ratio of neighbour cells < 0.01      : 0
    faces with face twist < 0.01                           : 0
    faces on cells with determinant < 0.001                : 0
Moved mesh in = 202.23 s


--> FOAM Warning : 
    From function void Foam::snappySnapDriver::doSnap(const Foam::dictionary&, const Foam::dictionary&, Foam::meshRefinement::FaceMergeType, Foam::scalar, Foam::scalar, const Foam::snapParameters&)
    in file snappyHexMeshDriver/snappySnapDriver.C at line 2856
    Did not successfully snap mesh. Continuing to snap to resolve easy
    surfaces but the resulting mesh will not satisfy your quality constraints


Morph iteration 1
-----------------
Calculating patchDisplacement as distance to nearest surface point ...
    non-zone points : attract to nearest of all non-zone surfaces
    zone points     : attract to zone surface only

Wanted displacement : average:0.00201493 min:2.23736e-07 max:0.0689286
Calculated surface displacement in = 0.19 s


Detecting near surfaces ...
Overriding nearest with intersection of close gaps at 0 out of 12162 points.
Overriding displacement on features :
   implicit features    : true
   explicit features    : false
   multi-patch features : true

Attraction:
    linear   : max:(0.0468725 0.0505382 0) avg:(0.000160456 0.000159823 -7.18899e-15)
    feature  : max:(0.11114 -0.0540182 0) avg:(0.000234895 0.000192024 6.88343e-41)
Feature analysis : total master points :12162 of which attracted to :
    feature point   : 0
    feature edge    : 115
    nearest surface : 12047
    rest            : 0

--> FOAM Warning : Displacement (5.80954e-05 0.000224275 -6.04536e-08) at mesh point 65802 coord (1.05313 -0.446875 -0.25) points through the surrounding patch faces
Smoothing displacement ...
Iteration 0
Iteration 10
Iteration 20
Displacement smoothed in = 0.6 s


Moving mesh ...

Iteration 0
Moving mesh using displacement scaling : min:1  max:1
Correcting 2-D mesh motion ...done
Checking faces in error :
    non-orthogonality > 60  degrees                        : 12762
    faces with face pyramid volume < -1                    : 0
    faces with face-decomposition tet quality < -1         : 0
    faces with concavity > 80  degrees                     : 0
    faces with skewness > 4   (internal) or 20  (boundary) : 0
    faces with interpolation weights (0..1)  < 0.05        : 0
    faces with volume ratio of neighbour cells < 0.01      : 0
    faces with face twist < 0.01                           : 0
    faces on cells with determinant < 0.001                : 0

Iteration 1
Moving mesh using displacement scaling : min:0.75  max:1
Correcting 2-D mesh motion ...done
Checking faces in error :
    non-orthogonality > 60  degrees                        : 12678
    faces with face pyramid volume < -1                    : 0
    faces with face-decomposition tet quality < -1         : 0
    faces with concavity > 80  degrees                     : 0
    faces with skewness > 4   (internal) or 20  (boundary) : 0
    faces with interpolation weights (0..1)  < 0.05        : 0
    faces with volume ratio of neighbour cells < 0.01      : 0
    faces with face twist < 0.01                           : 0
    faces on cells with determinant < 0.001                : 0

Iteration 2
Moving mesh using displacement scaling : min:0.5625  max:1
Correcting 2-D mesh motion ...done
Checking faces in error :
    non-orthogonality > 60  degrees                        : 12645
    faces with face pyramid volume < -1                    : 0
    faces with face-decomposition tet quality < -1         : 0
    faces with concavity > 80  degrees                     : 0
    faces with skewness > 4   (internal) or 20  (boundary) : 0
    faces with interpolation weights (0..1)  < 0.05        : 0
    faces with volume ratio of neighbour cells < 0.01      : 0
    faces with face twist < 0.01                           : 0
    faces on cells with determinant < 0.001                : 0

Iteration 3
Moving mesh using displacement scaling : min:0.421875  max:1
Correcting 2-D mesh motion ...done
Checking faces in error :
    non-orthogonality > 60  degrees                        : 12640
    faces with face pyramid volume < -1                    : 0
    faces with face-decomposition tet quality < -1         : 0
    faces with concavity > 80  degrees                     : 0
    faces with skewness > 4   (internal) or 20  (boundary) : 0
    faces with interpolation weights (0..1)  < 0.05        : 0
    faces with volume ratio of neighbour cells < 0.01      : 0
    faces with face twist < 0.01                           : 0
    faces on cells with determinant < 0.001                : 0

Iteration 4
Moving mesh using displacement scaling : min:0.316406  max:1
Correcting 2-D mesh motion ...done
Checking faces in error :
    non-orthogonality > 60  degrees                        : 12640
    faces with face pyramid volume < -1                    : 0
    faces with face-decomposition tet quality < -1         : 0
    faces with concavity > 80  degrees                     : 0
    faces with skewness > 4   (internal) or 20  (boundary) : 0
    faces with interpolation weights (0..1)  < 0.05        : 0
    faces with volume ratio of neighbour cells < 0.01      : 0
    faces with face twist < 0.01                           : 0
    faces on cells with determinant < 0.001                : 0

Iteration 5
Displacement scaling for error reduction set to 0.
Moving mesh using displacement scaling : min:0.237305  max:1
Correcting 2-D mesh motion ...done
Checking faces in error :
    non-orthogonality > 60  degrees                        : 12640
    faces with face pyramid volume < -1                    : 0
    faces with face-decomposition tet quality < -1         : 0
    faces with concavity > 80  degrees                     : 0
    faces with skewness > 4   (internal) or 20  (boundary) : 0
    faces with interpolation weights (0..1)  < 0.05        : 0
    faces with volume ratio of neighbour cells < 0.01      : 0
    faces with face twist < 0.01                           : 0
    faces on cells with determinant < 0.001                : 0

Iteration 6
Moving mesh using displacement scaling : min:0  max:1
Correcting 2-D mesh motion ...done
Checking faces in error :
    non-orthogonality > 60  degrees                        : 12640
    faces with face pyramid volume < -1                    : 0
    faces with face-decomposition tet quality < -1         : 0
    faces with concavity > 80  degrees                     : 0
    faces with skewness > 4   (internal) or 20  (boundary) : 0
    faces with interpolation weights (0..1)  < 0.05        : 0
    faces with volume ratio of neighbour cells < 0.01      : 0
    faces with face twist < 0.01                           : 0
    faces on cells with determinant < 0.001                : 0

Iteration 7
Moving mesh using displacement scaling : min:0  max:1
Correcting 2-D mesh motion ...done
Checking faces in error :
    non-orthogonality > 60  degrees                        : 12640
    faces with face pyramid volume < -1                    : 0
    faces with face-decomposition tet quality < -1         : 0
    faces with concavity > 80  degrees                     : 0
    faces with skewness > 4   (internal) or 20  (boundary) : 0
    faces with interpolation weights (0..1)  < 0.05        : 0
    faces with volume ratio of neighbour cells < 0.01      : 0
    faces with face twist < 0.01                           : 0
    faces on cells with determinant < 0.001                : 0

Iteration 8
Moving mesh using displacement scaling : min:0  max:1
Correcting 2-D mesh motion ...done
Checking faces in error :
    non-orthogonality > 60  degrees                        : 12640
    faces with face pyramid volume < -1                    : 0
    faces with face-decomposition tet quality < -1         : 0
    faces with concavity > 80  degrees                     : 0
    faces with skewness > 4   (internal) or 20  (boundary) : 0
    faces with interpolation weights (0..1)  < 0.05        : 0
    faces with volume ratio of neighbour cells < 0.01      : 0
    faces with face twist < 0.01                           : 0
    faces on cells with determinant < 0.001                : 0

Iteration 9
Moving mesh using displacement scaling : min:0  max:1
Correcting 2-D mesh motion ...done
Checking faces in error :
    non-orthogonality > 60  degrees                        : 12640
    faces with face pyramid volume < -1                    : 0
    faces with face-decomposition tet quality < -1         : 0
    faces with concavity > 80  degrees                     : 0
    faces with skewness > 4   (internal) or 20  (boundary) : 0
    faces with interpolation weights (0..1)  < 0.05        : 0
    faces with volume ratio of neighbour cells < 0.01      : 0
    faces with face twist < 0.01                           : 0
    faces on cells with determinant < 0.001                : 0
Moved mesh in = 201.85 s


--> FOAM Warning : 
    From function void Foam::snappySnapDriver::doSnap(const Foam::dictionary&, const Foam::dictionary&, Foam::meshRefinement::FaceMergeType, Foam::scalar, Foam::scalar, const Foam::snapParameters&)
    in file snappyHexMeshDriver/snappySnapDriver.C at line 2856
    Did not successfully snap mesh. Continuing to snap to resolve easy
    surfaces but the resulting mesh will not satisfy your quality constraints


Morph iteration 2
-----------------
Calculating patchDisplacement as distance to nearest surface point ...
    non-zone points : attract to nearest of all non-zone surfaces
    zone points     : attract to zone surface only

Wanted displacement : average:0.00199624 min:9.10102e-09 max:0.0681979
Calculated surface displacement in = 0.19 s


Detecting near surfaces ...
Overriding nearest with intersection of close gaps at 0 out of 12162 points.
Overriding displacement on features :
   implicit features    : true
   explicit features    : false
   multi-patch features : true

Attraction:
    linear   : max:(0.0469213 0.0494909 0) avg:(0.000159952 0.000159739 -1.76282e-13)
    feature  : max:(0.11114 -0.0540182 0) avg:(0.000234859 0.000192052 9.90959e-40)
Feature analysis : total master points :12162 of which attracted to :
    feature point   : 0
    feature edge    : 115
    nearest surface : 12047
    rest            : 0

--> FOAM Warning : Displacement (2.3292e-05 0.000289713 -7.42249e-08) at mesh point 65802 coord (1.05313 -0.446875 -0.25) points through the surrounding patch faces
Smoothing displacement ...
Iteration 0
Iteration 10
Iteration 20
Displacement smoothed in = 0.61 s


Moving mesh ...

Iteration 0
Moving mesh using displacement scaling : min:1  max:1
Correcting 2-D mesh motion ...done
Checking faces in error :
    non-orthogonality > 60  degrees                        : 13552
    faces with face pyramid volume < -1                    : 0
    faces with face-decomposition tet quality < -1         : 0
    faces with concavity > 80  degrees                     : 2
    faces with skewness > 4   (internal) or 20  (boundary) : 0
    faces with interpolation weights (0..1)  < 0.05        : 0
    faces with volume ratio of neighbour cells < 0.01      : 0
    faces with face twist < 0.01                           : 14
    faces on cells with determinant < 0.001                : 106

Iteration 1
Moving mesh using displacement scaling : min:0.75  max:1
Correcting 2-D mesh motion ...done
Checking faces in error :
    non-orthogonality > 60  degrees                        : 13080
    faces with face pyramid volume < -1                    : 0
    faces with face-decomposition tet quality < -1         : 0
    faces with concavity > 80  degrees                     : 0
    faces with skewness > 4   (internal) or 20  (boundary) : 0
    faces with interpolation weights (0..1)  < 0.05        : 0
    faces with volume ratio of neighbour cells < 0.01      : 0
    faces with face twist < 0.01                           : 0
    faces on cells with determinant < 0.001                : 0

Iteration 2
Moving mesh using displacement scaling : min:0.5625  max:1
Correcting 2-D mesh motion ...done
Checking faces in error :
    non-orthogonality > 60  degrees                        : 12786
    faces with face pyramid volume < -1                    : 0
    faces with face-decomposition tet quality < -1         : 0
    faces with concavity > 80  degrees                     : 0
    faces with skewness > 4   (internal) or 20  (boundary) : 0
    faces with interpolation weights (0..1)  < 0.05        : 0
    faces with volume ratio of neighbour cells < 0.01      : 0
    faces with face twist < 0.01                           : 0
    faces on cells with determinant < 0.001                : 0

Iteration 3
Moving mesh using displacement scaling : min:0.421875  max:1
Correcting 2-D mesh motion ...done
Checking faces in error :
    non-orthogonality > 60  degrees                        : 12692
    faces with face pyramid volume < -1                    : 0
    faces with face-decomposition tet quality < -1         : 0
    faces with concavity > 80  degrees                     : 0
    faces with skewness > 4   (internal) or 20  (boundary) : 0
    faces with interpolation weights (0..1)  < 0.05        : 0
    faces with volume ratio of neighbour cells < 0.01      : 0
    faces with face twist < 0.01                           : 0
    faces on cells with determinant < 0.001                : 0

Iteration 4
Moving mesh using displacement scaling : min:0.316406  max:1
Correcting 2-D mesh motion ...done
Checking faces in error :
    non-orthogonality > 60  degrees                        : 12662
    faces with face pyramid volume < -1                    : 0
    faces with face-decomposition tet quality < -1         : 0
    faces with concavity > 80  degrees                     : 0
    faces with skewness > 4   (internal) or 20  (boundary) : 0
    faces with interpolation weights (0..1)  < 0.05        : 0
    faces with volume ratio of neighbour cells < 0.01      : 0
    faces with face twist < 0.01                           : 0
    faces on cells with determinant < 0.001                : 0

Iteration 5
Displacement scaling for error reduction set to 0.
Moving mesh using displacement scaling : min:0.237305  max:1
Correcting 2-D mesh motion ...done
Checking faces in error :
    non-orthogonality > 60  degrees                        : 12645
    faces with face pyramid volume < -1                    : 0
    faces with face-decomposition tet quality < -1         : 0
    faces with concavity > 80  degrees                     : 0
    faces with skewness > 4   (internal) or 20  (boundary) : 0
    faces with interpolation weights (0..1)  < 0.05        : 0
    faces with volume ratio of neighbour cells < 0.01      : 0
    faces with face twist < 0.01                           : 0
    faces on cells with determinant < 0.001                : 0

Iteration 6
Moving mesh using displacement scaling : min:0  max:1
Correcting 2-D mesh motion ...done
Checking faces in error :
    non-orthogonality > 60  degrees                        : 12641
    faces with face pyramid volume < -1                    : 0
    faces with face-decomposition tet quality < -1         : 0
    faces with concavity > 80  degrees                     : 0
    faces with skewness > 4   (internal) or 20  (boundary) : 0
    faces with interpolation weights (0..1)  < 0.05        : 0
    faces with volume ratio of neighbour cells < 0.01      : 0
    faces with face twist < 0.01                           : 0
    faces on cells with determinant < 0.001                : 0

Iteration 7
Moving mesh using displacement scaling : min:0  max:1
Correcting 2-D mesh motion ...done
Checking faces in error :
    non-orthogonality > 60  degrees                        : 12640
    faces with face pyramid volume < -1                    : 0
    faces with face-decomposition tet quality < -1         : 0
    faces with concavity > 80  degrees                     : 0
    faces with skewness > 4   (internal) or 20  (boundary) : 0
    faces with interpolation weights (0..1)  < 0.05        : 0
    faces with volume ratio of neighbour cells < 0.01      : 0
    faces with face twist < 0.01                           : 0
    faces on cells with determinant < 0.001                : 0

Iteration 8
Moving mesh using displacement scaling : min:0  max:1
Correcting 2-D mesh motion ...done
Checking faces in error :
    non-orthogonality > 60  degrees                        : 12640
    faces with face pyramid volume < -1                    : 0
    faces with face-decomposition tet quality < -1         : 0
    faces with concavity > 80  degrees                     : 0
    faces with skewness > 4   (internal) or 20  (boundary) : 0
    faces with interpolation weights (0..1)  < 0.05        : 0
    faces with volume ratio of neighbour cells < 0.01      : 0
    faces with face twist < 0.01                           : 0
    faces on cells with determinant < 0.001                : 0

Iteration 9
Moving mesh using displacement scaling : min:0  max:1
Correcting 2-D mesh motion ...done
Checking faces in error :
    non-orthogonality > 60  degrees                        : 12640
    faces with face pyramid volume < -1                    : 0
    faces with face-decomposition tet quality < -1         : 0
    faces with concavity > 80  degrees                     : 0
    faces with skewness > 4   (internal) or 20  (boundary) : 0
    faces with interpolation weights (0..1)  < 0.05        : 0
    faces with volume ratio of neighbour cells < 0.01      : 0
    faces with face twist < 0.01                           : 0
    faces on cells with determinant < 0.001                : 0
Moved mesh in = 202.48 s


--> FOAM Warning : 
    From function void Foam::snappySnapDriver::doSnap(const Foam::dictionary&, const Foam::dictionary&, Foam::meshRefinement::FaceMergeType, Foam::scalar, Foam::scalar, const Foam::snapParameters&)
    in file snappyHexMeshDriver/snappySnapDriver.C at line 2856
    Did not successfully snap mesh. Continuing to snap to resolve easy
    surfaces but the resulting mesh will not satisfy your quality constraints


Morph iteration 3
-----------------
Calculating patchDisplacement as distance to nearest surface point ...
    non-zone points : attract to nearest of all non-zone surfaces
    zone points     : attract to zone surface only

Wanted displacement : average:0.00197027 min:3.98068e-08 max:0.0671023
Calculated surface displacement in = 0.19 s


Detecting near surfaces ...
Overriding nearest with intersection of close gaps at 0 out of 12162 points.
Overriding displacement on features :
   implicit features    : true
   explicit features    : false
   multi-patch features : true

Attraction:
    linear   : max:(0.0464044 0.0484701 0) avg:(0.000159175 0.000159491 -1.48686e-13)
    feature  : max:(0.11114 -0.0540182 0) avg:(0.000235998 0.000190985 0)
Feature analysis : total master points :12162 of which attracted to :
    feature point   : 0
    feature edge    : 115
    nearest surface : 12047
    rest            : 0

--> FOAM Warning : Displacement (-9.67408e-05 0.000320335 1.19488e-07) at mesh point 65802 coord (1.05313 -0.446875 -0.25) points through the surrounding patch faces
Smoothing displacement ...
Iteration 0
Iteration 10
Iteration 20
Displacement smoothed in = 0.6 s


Moving mesh ...

Iteration 0
Moving mesh using displacement scaling : min:1  max:1
Correcting 2-D mesh motion ...done
Checking faces in error :
    non-orthogonality > 60  degrees                        : 14971
    faces with face pyramid volume < -1                    : 0
    faces with face-decomposition tet quality < -1         : 0
    faces with concavity > 80  degrees                     : 13
    faces with skewness > 4   (internal) or 20  (boundary) : 0
    faces with interpolation weights (0..1)  < 0.05        : 2
    faces with volume ratio of neighbour cells < 0.01      : 1
    faces with face twist < 0.01                           : 437
    faces on cells with determinant < 0.001                : 294

Iteration 1
Moving mesh using displacement scaling : min:0.75  max:1
Correcting 2-D mesh motion ...done
Checking faces in error :
    non-orthogonality > 60  degrees                        : 13978
    faces with face pyramid volume < -1                    : 0
    faces with face-decomposition tet quality < -1         : 0
    faces with concavity > 80  degrees                     : 1
    faces with skewness > 4   (internal) or 20  (boundary) : 0
    faces with interpolation weights (0..1)  < 0.05        : 0
    faces with volume ratio of neighbour cells < 0.01      : 0
    faces with face twist < 0.01                           : 93
    faces on cells with determinant < 0.001                : 141

Iteration 2
Moving mesh using displacement scaling : min:0.5625  max:1
Correcting 2-D mesh motion ...done
Checking faces in error :
    non-orthogonality > 60  degrees                        : 13298
    faces with face pyramid volume < -1                    : 0
    faces with face-decomposition tet quality < -1         : 0
    faces with concavity > 80  degrees                     : 0
    faces with skewness > 4   (internal) or 20  (boundary) : 0
    faces with interpolation weights (0..1)  < 0.05        : 0
    faces with volume ratio of neighbour cells < 0.01      : 0
    faces with face twist < 0.01                           : 3
    faces on cells with determinant < 0.001                : 9

Iteration 3
Moving mesh using displacement scaling : min:0.421875  max:1
Correcting 2-D mesh motion ...done
Checking faces in error :
    non-orthogonality > 60  degrees                        : 12890
    faces with face pyramid volume < -1                    : 0
    faces with face-decomposition tet quality < -1         : 0
    faces with concavity > 80  degrees                     : 0
    faces with skewness > 4   (internal) or 20  (boundary) : 0
    faces with interpolation weights (0..1)  < 0.05        : 0
    faces with volume ratio of neighbour cells < 0.01      : 0
    faces with face twist < 0.01                           : 0
    faces on cells with determinant < 0.001                : 0

Iteration 4
Moving mesh using displacement scaling : min:0.316406  max:1
Correcting 2-D mesh motion ...done
Checking faces in error :
    non-orthogonality > 60  degrees                        : 12745
    faces with face pyramid volume < -1                    : 0
    faces with face-decomposition tet quality < -1         : 0
    faces with concavity > 80  degrees                     : 0
    faces with skewness > 4   (internal) or 20  (boundary) : 0
    faces with interpolation weights (0..1)  < 0.05        : 0
    faces with volume ratio of neighbour cells < 0.01      : 0
    faces with face twist < 0.01                           : 0
    faces on cells with determinant < 0.001                : 0

Iteration 5
Displacement scaling for error reduction set to 0.
Moving mesh using displacement scaling : min:0.237305  max:1
Correcting 2-D mesh motion ...done
Checking faces in error :
    non-orthogonality > 60  degrees                        : 12680
    faces with face pyramid volume < -1                    : 0
    faces with face-decomposition tet quality < -1         : 0
    faces with concavity > 80  degrees                     : 0
    faces with skewness > 4   (internal) or 20  (boundary) : 0
    faces with interpolation weights (0..1)  < 0.05        : 0
    faces with volume ratio of neighbour cells < 0.01      : 0
    faces with face twist < 0.01                           : 0
    faces on cells with determinant < 0.001                : 0

Iteration 6
Moving mesh using displacement scaling : min:0  max:1
Correcting 2-D mesh motion ...done
Checking faces in error :
    non-orthogonality > 60  degrees                        : 12647
    faces with face pyramid volume < -1                    : 0
    faces with face-decomposition tet quality < -1         : 0
    faces with concavity > 80  degrees                     : 0
    faces with skewness > 4   (internal) or 20  (boundary) : 0
    faces with interpolation weights (0..1)  < 0.05        : 0
    faces with volume ratio of neighbour cells < 0.01      : 0
    faces with face twist < 0.01                           : 0
    faces on cells with determinant < 0.001                : 0

Iteration 7
Moving mesh using displacement scaling : min:0  max:1
Correcting 2-D mesh motion ...done
Checking faces in error :
    non-orthogonality > 60  degrees                        : 12640
    faces with face pyramid volume < -1                    : 0
    faces with face-decomposition tet quality < -1         : 0
    faces with concavity > 80  degrees                     : 0
    faces with skewness > 4   (internal) or 20  (boundary) : 0
    faces with interpolation weights (0..1)  < 0.05        : 0
    faces with volume ratio of neighbour cells < 0.01      : 0
    faces with face twist < 0.01                           : 0
    faces on cells with determinant < 0.001                : 0

Iteration 8
Moving mesh using displacement scaling : min:0  max:1
Correcting 2-D mesh motion ...done
Checking faces in error :
    non-orthogonality > 60  degrees                        : 12640
    faces with face pyramid volume < -1                    : 0
    faces with face-decomposition tet quality < -1         : 0
    faces with concavity > 80  degrees                     : 0
    faces with skewness > 4   (internal) or 20  (boundary) : 0
    faces with interpolation weights (0..1)  < 0.05        : 0
    faces with volume ratio of neighbour cells < 0.01      : 0
    faces with face twist < 0.01                           : 0
    faces on cells with determinant < 0.001                : 0

Iteration 9
Moving mesh using displacement scaling : min:0  max:1
Correcting 2-D mesh motion ...done
Checking faces in error :
    non-orthogonality > 60  degrees                        : 12640
    faces with face pyramid volume < -1                    : 0
    faces with face-decomposition tet quality < -1         : 0
    faces with concavity > 80  degrees                     : 0
    faces with skewness > 4   (internal) or 20  (boundary) : 0
    faces with interpolation weights (0..1)  < 0.05        : 0
    faces with volume ratio of neighbour cells < 0.01      : 0
    faces with face twist < 0.01                           : 0
    faces on cells with determinant < 0.001                : 0
Moved mesh in = 202.38 s


--> FOAM Warning : 
    From function void Foam::snappySnapDriver::doSnap(const Foam::dictionary&, const Foam::dictionary&, Foam::meshRefinement::FaceMergeType, Foam::scalar, Foam::scalar, const Foam::snapParameters&)
    in file snappyHexMeshDriver/snappySnapDriver.C at line 2856
    Did not successfully snap mesh. Continuing to snap to resolve easy
[...]
Smoothing displacement ...
Iteration 0
Iteration 10
Iteration 20
Displacement smoothed in = 0.64 s


Moving mesh ...

Iteration 0
Moving mesh using displacement scaling : min:1  max:1
Correcting 2-D mesh motion ...done
Checking faces in error :
    non-orthogonality > 60  degrees                        : 20266
    faces with face pyramid volume < -1                    : 0
    faces with face-decomposition tet quality < -1         : 0
    faces with concavity > 80  degrees                     : 87
    faces with skewness > 4   (internal) or 20  (boundary) : 4
    faces with interpolation weights (0..1)  < 0.05        : 10
    faces with volume ratio of neighbour cells < 0.01      : 0
    faces with face twist < 0.01                           : 3470
    faces on cells with determinant < 0.001                : 466

Iteration 1
Moving mesh using displacement scaling : min:0.75  max:1
Correcting 2-D mesh motion ...done
Checking faces in error :
    non-orthogonality > 60  degrees                        : 19103
    faces with face pyramid volume < -1                    : 0
    faces with face-decomposition tet quality < -1         : 0
    faces with concavity > 80  degrees                     : 85
    faces with skewness > 4   (internal) or 20  (boundary) : 3
    faces with interpolation weights (0..1)  < 0.05        : 14
    faces with volume ratio of neighbour cells < 0.01      : 1
    faces with face twist < 0.01                           : 2804
    faces on cells with determinant < 0.001                : 502

Iteration 2
Moving mesh using displacement scaling : min:0.5625  max:1
Correcting 2-D mesh motion ...done
Checking faces in error :
    non-orthogonality > 60  degrees                        : 17858
    faces with face pyramid volume < -1                    : 0
    faces with face-decomposition tet quality < -1         : 0
    faces with concavity > 80  degrees                     : 54
    faces with skewness > 4   (internal) or 20  (boundary) : 3
    faces with interpolation weights (0..1)  < 0.05        : 11
    faces with volume ratio of neighbour cells < 0.01      : 0
    faces with face twist < 0.01                           : 2092
    faces on cells with determinant < 0.001                : 609

Iteration 3
Moving mesh using displacement scaling : min:0.421875  max:1
Correcting 2-D mesh motion ...done
Checking faces in error :
    non-orthogonality > 60  degrees                        : 16746
    faces with face pyramid volume < -1                    : 0
    faces with face-decomposition tet quality < -1         : 0
    faces with concavity > 80  degrees                     : 25
    faces with skewness > 4   (internal) or 20  (boundary) : 4
    faces with interpolation weights (0..1)  < 0.05        : 8
    faces with volume ratio of neighbour cells < 0.01      : 0
    faces with face twist < 0.01                           : 1327
    faces on cells with determinant < 0.001                : 531

Iteration 4
Moving mesh using displacement scaling : min:0.316406  max:1
Correcting 2-D mesh motion ...done
Checking faces in error :
    non-orthogonality > 60  degrees                        : 15646
    faces with face pyramid volume < -1                    : 0
    faces with face-decomposition tet quality < -1         : 0
    faces with concavity > 80  degrees                     : 6
    faces with skewness > 4   (internal) or 20  (boundary) : 0
    faces with interpolation weights (0..1)  < 0.05        : 4
    faces with volume ratio of neighbour cells < 0.01      : 1
    faces with face twist < 0.01                           : 647
    faces on cells with determinant < 0.001                : 365

Iteration 5
Displacement scaling for error reduction set to 0.
Moving mesh using displacement scaling : min:0.237305  max:1
Correcting 2-D mesh motion ...done
Checking faces in error :
    non-orthogonality > 60  degrees                        : 14598
    faces with face pyramid volume < -1                    : 0
    faces with face-decomposition tet quality < -1         : 0
    faces with concavity > 80  degrees                     : 1
    faces with skewness > 4   (internal) or 20  (boundary) : 0
    faces with interpolation weights (0..1)  < 0.05        : 2
    faces with volume ratio of neighbour cells < 0.01      : 0
    faces with face twist < 0.01                           : 260
    faces on cells with determinant < 0.001                : 164

Iteration 6
Moving mesh using displacement scaling : min:0  max:1
Correcting 2-D mesh motion ...done
Checking faces in error :
    non-orthogonality > 60  degrees                        : 13015
    faces with face pyramid volume < -1                    : 0
    faces with face-decomposition tet quality < -1         : 0
    faces with concavity > 80  degrees                     : 0
    faces with skewness > 4   (internal) or 20  (boundary) : 0
    faces with interpolation weights (0..1)  < 0.05        : 0
    faces with volume ratio of neighbour cells < 0.01      : 1
    faces with face twist < 0.01                           : 45
    faces on cells with determinant < 0.001                : 109

Iteration 7
Moving mesh using displacement scaling : min:0  max:1
Correcting 2-D mesh motion ...done
Checking faces in error :
    non-orthogonality > 60  degrees                        : 12727
    faces with face pyramid volume < -1                    : 0
    faces with face-decomposition tet quality < -1         : 0
    faces with concavity > 80  degrees                     : 0
    faces with skewness > 4   (internal) or 20  (boundary) : 0
    faces with interpolation weights (0..1)  < 0.05        : 0
    faces with volume ratio of neighbour cells < 0.01      : 0
    faces with face twist < 0.01                           : 5
    faces on cells with determinant < 0.001                : 17

Iteration 8
Moving mesh using displacement scaling : min:0  max:1
Correcting 2-D mesh motion ...done
Checking faces in error :
    non-orthogonality > 60  degrees                        : 12645
    faces with face pyramid volume < -1                    : 0
    faces with face-decomposition tet quality < -1         : 0
    faces with concavity > 80  degrees                     : 0
    faces with skewness > 4   (internal) or 20  (boundary) : 0
    faces with interpolation weights (0..1)  < 0.05        : 0
    faces with volume ratio of neighbour cells < 0.01      : 0
    faces with face twist < 0.01                           : 0
    faces on cells with determinant < 0.001                : 0

Iteration 9
Moving mesh using displacement scaling : min:0  max:1
Correcting 2-D mesh motion ...done
Checking faces in error :
    non-orthogonality > 60  degrees                        : 12642
    faces with face pyramid volume < -1                    : 0
    faces with face-decomposition tet quality < -1         : 0
    faces with concavity > 80  degrees                     : 0
    faces with skewness > 4   (internal) or 20  (boundary) : 0
    faces with interpolation weights (0..1)  < 0.05        : 0
    faces with volume ratio of neighbour cells < 0.01      : 0
    faces with face twist < 0.01                           : 0
    faces on cells with determinant < 0.001                : 0
Moved mesh in = 201.37 s


--> FOAM Warning : 
    From function void Foam::snappySnapDriver::doSnap(const Foam::dictionary&, const Foam::dictionary&, Foam::meshRefinement::FaceMergeType, Foam::scalar, Foam::scalar, const Foam::snapParameters&)
    in file snappyHexMeshDriver/snappySnapDriver.C at line 2856
    Did not successfully snap mesh. Continuing to snap to resolve easy
    surfaces but the resulting mesh will not satisfy your quality constraints


Morph iteration 9
-----------------
Calculating patchDisplacement as distance to nearest surface point ...
    non-zone points : attract to nearest of all non-zone surfaces
    zone points     : attract to zone surface only

Wanted displacement : average:0.00177194 min:3.4531e-07 max:0.0643473
Calculated surface displacement in = 0.19 s


Detecting near surfaces ...
Overriding nearest with intersection of close gaps at 0 out of 12162 points.
Overriding displacement on features :
   implicit features    : true
   explicit features    : false
   multi-patch features : true

Attraction:
    linear   : max:(0.0468013 0.0441612 0) avg:(0.000161027 0.000162408 -1.94909e-14)
    feature  : max:(0.11114 -0.0540182 0) avg:(0.000241101 0.000193164 0)
Feature analysis : total master points :12162 of which attracted to :
    feature point   : 0
    feature edge    : 115
    nearest surface : 12047
    rest            : 0

--> FOAM Warning : Displacement (-0.00309064 0.000268324 0) at mesh point 65802 coord (1.05313 -0.446875 -0.25) points through the surrounding patch faces
Smoothing displacement ...
Iteration 0
Iteration 10
Iteration 20
Displacement smoothed in = 0.6 s


Moving mesh ...

Iteration 0
Moving mesh using displacement scaling : min:1  max:1
Correcting 2-D mesh motion ...done
Checking faces in error :
    non-orthogonality > 60  degrees                        : 19287
    faces with face pyramid volume < -1                    : 0
    faces with face-decomposition tet quality < -1         : 0
    faces with concavity > 80  degrees                     : 61
    faces with skewness > 4   (internal) or 20  (boundary) : 25
    faces with interpolation weights (0..1)  < 0.05        : 49
    faces with volume ratio of neighbour cells < 0.01      : 5
    faces with face twist < 0.01                           : 2966
    faces on cells with determinant < 0.001                : 955

Iteration 1
Moving mesh using displacement scaling : min:0.75  max:1
Correcting 2-D mesh motion ...done
Checking faces in error :
    non-orthogonality > 60  degrees                        : 17350
    faces with face pyramid volume < -1                    : 0
    faces with face-decomposition tet quality < -1         : 0
    faces with concavity > 80  degrees                     : 59
    faces with skewness > 4   (internal) or 20  (boundary) : 1
    faces with interpolation weights (0..1)  < 0.05        : 3
    faces with volume ratio of neighbour cells < 0.01      : 0
    faces with face twist < 0.01                           : 1491
    faces on cells with determinant < 0.001                : 736

Iteration 2
Moving mesh using displacement scaling : min:0.5625  max:1
Correcting 2-D mesh motion ...done
Checking faces in error :
    non-orthogonality > 60  degrees                        : 16185
    faces with face pyramid volume < -1                    : 0
    faces with face-decomposition tet quality < -1         : 0
    faces with concavity > 80  degrees                     : 51
    faces with skewness > 4   (internal) or 20  (boundary) : 0
    faces with interpolation weights (0..1)  < 0.05        : 5
    faces with volume ratio of neighbour cells < 0.01      : 0
    faces with face twist < 0.01                           : 702
    faces on cells with determinant < 0.001                : 291

Iteration 3
Moving mesh using displacement scaling : min:0.421875  max:1
Correcting 2-D mesh motion ...done
Checking faces in error :
    non-orthogonality > 60  degrees                        : 14823
    faces with face pyramid volume < -1                    : 0
    faces with face-decomposition tet quality < -1         : 0
    faces with concavity > 80  degrees                     : 28
    faces with skewness > 4   (internal) or 20  (boundary) : 1
    faces with interpolation weights (0..1)  < 0.05        : 4
    faces with volume ratio of neighbour cells < 0.01      : 0
    faces with face twist < 0.01                           : 423
    faces on cells with determinant < 0.001                : 45

Iteration 4
Moving mesh using displacement scaling : min:0.316406  max:1
Correcting 2-D mesh motion ...done
Checking faces in error :
    non-orthogonality > 60  degrees                        : 13655
    faces with face pyramid volume < -1                    : 0
    faces with face-decomposition tet quality < -1         : 0
    faces with concavity > 80  degrees                     : 9
    faces with skewness > 4   (internal) or 20  (boundary) : 1
    faces with interpolation weights (0..1)  < 0.05        : 7
    faces with volume ratio of neighbour cells < 0.01      : 0
    faces with face twist < 0.01                           : 309
    faces on cells with determinant < 0.001                : 7

Iteration 5
Displacement scaling for error reduction set to 0.
Moving mesh using displacement scaling : min:0.237305  max:1
Correcting 2-D mesh motion ...done
Checking faces in error :
    non-orthogonality > 60  degrees                        : 13228
    faces with face pyramid volume < -1                    : 0
    faces with face-decomposition tet quality < -1         : 0
    faces with concavity > 80  degrees                     : 0
    faces with skewness > 4   (internal) or 20  (boundary) : 0
    faces with interpolation weights (0..1)  < 0.05        : 0
    faces with volume ratio of neighbour cells < 0.01      : 0
    faces with face twist < 0.01                           : 221
    faces on cells with determinant < 0.001                : 0

Iteration 6
Moving mesh using displacement scaling : min:0  max:1
Correcting 2-D mesh motion ...done
Checking faces in error :
    non-orthogonality > 60  degrees                        : 13014
    faces with face pyramid volume < -1                    : 0
    faces with face-decomposition tet quality < -1         : 0
    faces with concavity > 80  degrees                     : 2
    faces with skewness > 4   (internal) or 20  (boundary) : 0
    faces with interpolation weights (0..1)  < 0.05        : 6
    faces with volume ratio of neighbour cells < 0.01      : 0
    faces with face twist < 0.01                           : 56
    faces on cells with determinant < 0.001                : 114

Iteration 7
Moving mesh using displacement scaling : min:0  max:1
Correcting 2-D mesh motion ...done
Checking faces in error :
    non-orthogonality > 60  degrees                        : 12748
    faces with face pyramid volume < -1                    : 0
    faces with face-decomposition tet quality < -1         : 0
    faces with concavity > 80  degrees                     : 0
    faces with skewness > 4   (internal) or 20  (boundary) : 0
    faces with interpolation weights (0..1)  < 0.05        : 0
    faces with volume ratio of neighbour cells < 0.01      : 0
    faces with face twist < 0.01                           : 0
    faces on cells with determinant < 0.001                : 19

Iteration 8
Moving mesh using displacement scaling : min:0  max:1
Correcting 2-D mesh motion ...done
Checking faces in error :
    non-orthogonality > 60  degrees                        : 12650
    faces with face pyramid volume < -1                    : 0
    faces with face-decomposition tet quality < -1         : 0
    faces with concavity > 80  degrees                     : 0
    faces with skewness > 4   (internal) or 20  (boundary) : 0
    faces with interpolation weights (0..1)  < 0.05        : 0
    faces with volume ratio of neighbour cells < 0.01      : 0
    faces with face twist < 0.01                           : 0
    faces on cells with determinant < 0.001                : 0

Iteration 9
Moving mesh using displacement scaling : min:0  max:1
Correcting 2-D mesh motion ...done
Checking faces in error :
    non-orthogonality > 60  degrees                        : 12642
    faces with face pyramid volume < -1                    : 0
    faces with face-decomposition tet quality < -1         : 0
    faces with concavity > 80  degrees                     : 0
    faces with skewness > 4   (internal) or 20  (boundary) : 0
    faces with interpolation weights (0..1)  < 0.05        : 0
    faces with volume ratio of neighbour cells < 0.01      : 0
    faces with face twist < 0.01                           : 0
    faces on cells with determinant < 0.001                : 0
Moved mesh in = 202.02 s


--> FOAM Warning : 
    From function void Foam::snappySnapDriver::doSnap(const Foam::dictionary&, const Foam::dictionary&, Foam::meshRefinement::FaceMergeType, Foam::scalar, Foam::scalar, const Foam::snapParameters&)
    in file snappyHexMeshDriver/snappySnapDriver.C at line 2856
    Did not successfully snap mesh. Continuing to snap to resolve easy
    surfaces but the resulting mesh will not satisfy your quality constraints

Edge intersection testing:
    Number of edges             : 154149
    Number of edges to retest   : 930
    Number of intersected edges : 8340
Repatching faces according to nearest surface ...
Repatched 0 faces in = 0.39 s


Edge intersection testing:
    Number of edges             : 154149
    Number of edges to retest   : 147183
    Number of intersected edges : 8388
Merging 68 sets of faces.

Edge intersection testing:
    Number of edges             : 154081
    Number of edges to retest   : 285
    Number of intersected edges : 8320

Undo iteration 0
----------------
Checking faces in error :
    non-orthogonality > 60  degrees                        : 12642
    faces with face pyramid volume < -1                    : 0
    faces with face-decomposition tet quality < -1         : 0
    faces with concavity > 80  degrees                     : 0
    faces with skewness > 4   (internal) or 20  (boundary) : 0
    faces with interpolation weights (0..1)  < 0.05        : 0
    faces with volume ratio of neighbour cells < 0.01      : 0
    faces with face twist < 0.01                           : 0
    faces on cells with determinant < 0.001                : 0
Masters that need to be restored:0

Merging all points on surface that
- are used by only two boundary faces and
- make an angle with a cosine of more than 0.5.

Removing 85 straight edge points ...

Edge intersection testing:
    Number of edges             : 154081
    Number of edges to retest   : 285
    Number of intersected edges : 8320

Undo iteration 0
----------------
Checking faces in error :
    non-orthogonality > 60  degrees                        : 12642
    faces with face pyramid volume < -1                    : 0
    faces with face-decomposition tet quality < -1         : 0
    faces with concavity > 80  degrees                     : 0
    faces with skewness > 4   (internal) or 20  (boundary) : 0
    faces with interpolation weights (0..1)  < 0.05        : 0
    faces with volume ratio of neighbour cells < 0.01      : 0
    faces with face twist < 0.01                           : 0
    faces on cells with determinant < 0.001                : 0
Detected 0 error faces on boundaries that have been merged. These will be restored to their original faces.

Detected 12642 error faces in mesh. Restoring neighbours of faces in error.

Edge intersection testing:
    Number of edges             : 154081
    Number of edges to retest   : 73129
    Number of intersected edges : 8320
Snapped mesh : cells:39761  faces:154081  points:76901
Cells per refinement level:
    0	19453
    1	3560
    2	16748
Writing mesh to time constant
Wrote mesh in = 2.12 s.
Mesh snapped in = 2638.93 s.
Checking final mesh ...
Checking faces in error :
    non-orthogonality > 60  degrees                        : 12642
    faces with face pyramid volume < -1                    : 0
    faces with face-decomposition tet quality < -1         : 0
    faces with concavity > 80  degrees                     : 0
    faces with skewness > 4   (internal) or 20  (boundary) : 0
    faces with interpolation weights (0..1)  < 0.05        : 0
    faces with volume ratio of neighbour cells < 0.01      : 0
    faces with face twist < 0.01                           : 0
    faces on cells with determinant < 0.001                : 0
Finished meshing with 12642 illegal faces (concave, zero area or negative cell pyramid volume)
Finished meshing in = 2645.5 s.
End

