/*---------------------------------------------------------------------------*\
| =========                 |                                                 |
| \\      /  F ield         | OpenFOAM: The Open Source CFD Toolbox           |
|  \\    /   O peration     | Version:  v1912                                 |
|   \\  /    A nd           | Website:  www.openfoam.com                      |
|    \\/     M anipulation  |                                                 |
\*---------------------------------------------------------------------------*/
Build  : _f3950763fe-20191219 OPENFOAM=1912
Arch   : "LSB;label=32;scalar=64"
Exec   : snappyHexMesh -parallel -overwrite
Date   : Nov 24 2020
Time   : 19:26:16
Host   : 53bbc2ec95fa
PID    : 3094
I/O    : uncollated
Case   : /home/hao/OpenFOAM/hao-v1912/diffuser_2d/tunner
nProcs : 4
Hosts  :
(
    (53bbc2ec95fa 4)
)
Pstream initialized with:
    floatTransfer      : 0
    nProcsSimpleSum    : 0
    commsType          : nonBlocking
    polling iterations : 0
trapFpe: Floating point exception trapping enabled (FOAM_SIGFPE).
fileModificationChecking : Monitoring run-time modified files using timeStampMaster (fileModificationSkew 10)
allowSystemOperations : Allowing user-supplied system call operations

// * * * * * * * * * * * * * * * * * * * * * * * * * * * * * * * * * * * * * //
Create time

Create mesh for time = 0

Read mesh in = 0.15 s

Overall mesh bounding box  : (0 -0.07 -0.5) (0.15 0.08 0.5)
Relative tolerance         : 1e-06
Absolute matching distance : 1.02225e-06

Reading refinement surfaces.
Read refinement surfaces in = 0.01 s

Reading refinement shells.
Read refinement shells in = 0 s

Setting refinement level of surface to be consistent with shells.
For geometry twall.stl detected 0 uncached triangles out of 400
For geometry vane1.stl detected 0 uncached triangles out of 444
For geometry vane2.stl detected 0 uncached triangles out of 444
For geometry vane3.stl detected 0 uncached triangles out of 444
For geometry vane4.stl detected 0 uncached triangles out of 444
For geometry vane5.stl detected 0 uncached triangles out of 444
For geometry vane6.stl detected 0 uncached triangles out of 444
For geometry vane7.stl detected 0 uncached triangles out of 444
For geometry vane8.stl detected 0 uncached triangles out of 444
For geometry vane9.stl detected 0 uncached triangles out of 444
Checked shell refinement in = 0.02 s

Reading features.
Read edgeMesh twall.eMesh
    points      : 204
    edges       : 212
    boundingBox : (-0.02 -0.09 -1) (0.13 0.06 1)

Refinement level according to distance to "twall.eMesh" (204 points, 212 edges).
    level 2 for all cells within 0 metre.
Read edgeMesh vane1.eMesh
    points      : 224
    edges       : 230
    boundingBox : (0.0132242 -0.057783 -1) (0.028946 -0.0400087 1)

Refinement level according to distance to "vane1.eMesh" (224 points, 230 edges).
    level 2 for all cells within 0 metre.
Read edgeMesh vane2.eMesh
    points      : 224
    edges       : 230
    boundingBox : (0.0232242 -0.047783 -1) (0.038946 -0.0300087 1)

Refinement level according to distance to "vane2.eMesh" (224 points, 230 edges).
    level 2 for all cells within 0 metre.
Read edgeMesh vane3.eMesh
    points      : 224
    edges       : 230
    boundingBox : (0.0332242 -0.037783 -1) (0.048946 -0.0200087 1)

Refinement level according to distance to "vane3.eMesh" (224 points, 230 edges).
    level 2 for all cells within 0 metre.
Read edgeMesh vane4.eMesh
    points      : 224
    edges       : 230
    boundingBox : (0.0432242 -0.027783 -1) (0.058946 -0.0100087 1)

Refinement level according to distance to "vane4.eMesh" (224 points, 230 edges).
    level 2 for all cells within 0 metre.
Read edgeMesh vane5.eMesh
    points      : 224
    edges       : 230
    boundingBox : (0.0532242 -0.017823 -1) (0.068946 -4.874e-05 1)

Refinement level according to distance to "vane5.eMesh" (224 points, 230 edges).
    level 2 for all cells within 0 metre.
Read edgeMesh vane6.eMesh
    points      : 224
    edges       : 230
    boundingBox : (0.0632242 -0.00782302 -1) (0.078946 0.00995126 1)

Refinement level according to distance to "vane6.eMesh" (224 points, 230 edges).
    level 2 for all cells within 0 metre.
Read edgeMesh vane7.eMesh
    points      : 224
    edges       : 230
    boundingBox : (0.0732242 0.00221698 -1) (0.088946 0.0199913 1)

Refinement level according to distance to "vane7.eMesh" (224 points, 230 edges).
    level 2 for all cells within 0 metre.
Read edgeMesh vane8.eMesh
    points      : 224
    edges       : 230
    boundingBox : (0.0832242 0.012217 -1) (0.098946 0.0299913 1)

Refinement level according to distance to "vane8.eMesh" (224 points, 230 edges).
    level 2 for all cells within 0 metre.
Read edgeMesh vane9.eMesh
    points      : 224
    edges       : 230
    boundingBox : (0.0927242 0.022217 -1) (0.108446 0.0399913 1)

Refinement level according to distance to "vane9.eMesh" (224 points, 230 edges).
    level 2 for all cells within 0 metre.
Read features in = 0.01 s


Determining initial surface intersections
-----------------------------------------

Edge intersection testing:
    Number of edges             : 131406
    Number of edges to retest   : 0
    Number of intersected edges : 0
Edge intersection testing:
    Number of edges             : 131406
    Number of edges to retest   : 131406
    Number of intersected edges : 1397
Calculated surface intersections in = 0.13 s

Initial mesh : cells:32761  faces:131406  points:66248
Cells per refinement level:
    0	32761

Adding patches for surface regions
----------------------------------

Patch Type                Region                        
----- ----                ------                        
twalls:

5     wall                twalls                        

twalls:

5     wall                twalls                        

twalls:

5     wall                twalls                        

twalls:

5     wall                twalls                        

twalls:

5     wall                twalls                        

twalls:

5     wall                twalls                        

twalls:

5     wall                twalls                        

twalls:

5     wall                twalls                        

twalls:

5     wall                twalls                        

twalls:

5     wall                twalls                        

Added patches in = 0 s

Edge intersection testing:
    Number of edges             : 131406
    Number of edges to retest   : 0
    Number of intersected edges : 1397
Selecting decompositionMethod ptscotch [4]

Refinement phase
----------------

Found point (0.01 0 0) in cell 7572 on processor 0

Feature refinement iteration 0
------------------------------

Marked for refinement due to explicit features             : 0 cells.
Determined cells to refine in = 0.09 s
Selected for feature refinement : 0 cells (out of 32761)
Stopping refining since too few cells selected.


Surface refinement iteration 0
------------------------------

Marked for refinement due to surface intersection          : 2073 cells.
Determined cells to refine in = 0 s
Selected for refinement : 2073 cells (out of 32761)
Edge intersection testing:
    Number of edges             : 184392
    Number of edges to retest   : 69632
    Number of intersected edges : 5628
Refined mesh in = 0.21 s
After refinement surface refinement iteration 0 : cells:47272  faces:184392  points:91303
Cells per refinement level:
    0	30688
    1	16584
Skipping balancing since max unbalance 0.0893552 is less than allowable 0.1

Surface refinement iteration 1
------------------------------

Marked for refinement due to surface intersection          : 9098 cells.
Determined cells to refine in = 0.01 s
Selected for refinement : 9386 cells (out of 47272)
Edge intersection testing:
    Number of edges             : 411102
    Number of edges to retest   : 290921
    Number of intersected edges : 22512
Refined mesh in = 0.51 s
After refinement surface refinement iteration 1 : cells:112974  faces:411102  points:188789
Cells per refinement level:
    0	30394
    1	9844
    2	72736
Balanced mesh in = 0.76 s
After balancing surface refinement iteration 1 : cells:112974  faces:411102  points:188789
Cells per refinement level:
    0	30394
    1	9844
    2	72736

Surface refinement iteration 2
------------------------------

Marked for refinement due to surface intersection          : 26 cells.
Determined cells to refine in = 0.02 s
Selected for refinement : 28 cells (out of 112974)
Edge intersection testing:
    Number of edges             : 411741
    Number of edges to retest   : 2015
    Number of intersected edges : 22504
Refined mesh in = 0.23 s
After refinement surface refinement iteration 2 : cells:113170  faces:411741  points:189037
Cells per refinement level:
    0	30392
    1	9834
    2	72944
Skipping balancing since max unbalance 0.0179203 is less than allowable 0.1

Surface refinement iteration 3
------------------------------

Marked for refinement due to surface intersection          : 0 cells.
Determined cells to refine in = 0.02 s
Selected for refinement : 0 cells (out of 113170)
Stopping refining since too few cells selected.


Removing mesh beyond surface intersections
------------------------------------------

Setting cellZones according to locationsInMesh:
Location : (0.01 0 0)
    cellZone : none

For cellZone none found point (0.01 0 0) in global region 2 out of 14 regions.
Keeping all cells containing inside points
Selected for keeping : 113170 cells.
Edge intersection testing:
    Number of edges             : 411741
    Number of edges to retest   : 0
    Number of intersected edges : 22504
Setting cellZones according to locationsInMesh:
Location : (0.01 0 0)
    cellZone : none

For cellZone none found point (0.01 0 0) in global region 2 out of 14 regions.
Keeping all cells containing inside points
Selected for keeping : 101456 cells.
Edge intersection testing:
    Number of edges             : 390148
    Number of edges to retest   : 27098
    Number of intersected edges : 22504

Shell refinement iteration 0
----------------------------

Marked for refinement due to distance to explicit features : 0 cells.
Marked for refinement due to refinement shells             : 0 cells.
Determined cells to refine in = 0.45 s
Selected for internal refinement : 0 cells (out of 101456)
Stopping refining since too few cells selected.


Dangling coarse cells refinement iteration 0
--------------------------------------------

Determined cells to refine in = 0.01 s
Selected for refinement : 0 cells (out of 101456)
Stopping refining since too few cells selected.


Dangling coarse cells refinement iteration 0
--------------------------------------------

Determined cells to refine in = 0 s
Selected for refinement : 0 cells (out of 101456)
Stopping refining since too few cells selected.


Refinement transition refinement iteration 0
--------------------------------------------

Determined cells to refine in = 0 s
Selected for refinement : 0 cells (out of 101456)
Stopping refining since too few cells selected.


Splitting mesh at surface intersections
---------------------------------------

Introducing baffles for 22504 faces that are intersected by the surface.

Setting cellZones according to locationsInMesh:
Location : (0.01 0 0)
    cellZone : none

For cellZone none found point (0.01 0 0) in global region 2 out of 14 regions.
Edge intersection testing:
    Number of edges             : 412652
    Number of edges to retest   : 163740
    Number of intersected edges : 45008
Created baffles in = 0.32 s


After introducing baffles : cells:101456  faces:412652  points:186653
Cells per refinement level:
    0	30392
    1	9834
    2	61230

Introducing baffles to block off problem cells
----------------------------------------------

markFacesOnProblemCells : marked 21315 additional internal faces to be converted into baffles.
Analyzed problem cells in = 0.13 s


Introducing baffles to delete problem cells.

Edge intersection testing:
    Number of edges             : 433967
    Number of edges to retest   : 103143
    Number of intersected edges : 45008
Created baffles in = 0.24 s


After introducing baffles : cells:101456  faces:433967  points:186653
Cells per refinement level:
    0	30392
    1	9834
    2	61230
Setting cellZones according to locationsInMesh:
Location : (0.01 0 0)
    cellZone : none

For cellZone none found point (0.01 0 0) in global region 2 out of 8332 regions.
Edge intersection testing:
    Number of edges             : 433967
    Number of edges to retest   : 181897
    Number of intersected edges : 45008

Remove unreachable sections of mesh
-----------------------------------

Keeping all cells containing points 1((0.01 0 0))
Selected for keeping : 47282 cells.
Edge intersection testing:
    Number of edges             : 186288
    Number of edges to retest   : 0
    Number of intersected edges : 17104
Split mesh in = 0.52 s


After subsetting : cells:47282  faces:186288  points:95657
Cells per refinement level:
    0	19064
    1	5142
    2	23076

Introducing zones for interfaces
--------------------------------

Setting cellZones according to locationsInMesh:
Location : (0.01 0 0)
    cellZone : none

For cellZone none found point (0.01 0 0) in global region 0 out of 1 regions.
Setting faceZones according to neighbouring cellZones:

Edge intersection testing:
    Number of edges             : 186288
    Number of edges to retest   : 0
    Number of intersected edges : 17104

Handling cells with snap problems
---------------------------------

Introducing baffles for 17104 faces that are intersected by the surface.

Setting cellZones according to locationsInMesh:
Location : (0.01 0 0)
    cellZone : none

For cellZone none found point (0.01 0 0) in global region 0 out of 1 regions.
Edge intersection testing:
    Number of edges             : 186288
    Number of edges to retest   : 60741
    Number of intersected edges : 17104
Created baffles in = 0.36 s


After introducing baffles : cells:47282  faces:186288  points:95657
Cells per refinement level:
    0	19064
    1	5142
    2	23076

Introducing baffles to block off problem cells
----------------------------------------------

markFacesOnProblemCells : marked 0 additional internal faces to be converted into baffles.
Analyzed problem cells in = 0.06 s


Introducing baffles to delete problem cells.

Created baffles in = 0.02 s


After introducing baffles : cells:47282  faces:186288  points:95657
Cells per refinement level:
    0	19064
    1	5142
    2	23076
Setting cellZones according to locationsInMesh:
Location : (0.01 0 0)
    cellZone : none

For cellZone none found point (0.01 0 0) in global region 0 out of 1 regions.
Edge intersection testing:
    Number of edges             : 186288
    Number of edges to retest   : 60741
    Number of intersected edges : 17104

Remove unreachable sections of mesh
-----------------------------------

Split mesh in = 0.24 s


After subsetting : cells:47282  faces:186288  points:95657
Cells per refinement level:
    0	19064
    1	5142
    2	23076

Merge free-standing baffles
---------------------------

freeStandingBaffles : detected 0 free-standing baffles out of 0

Detected free-standing baffles : 0
Merged free-standing baffles in = 0.06 s


dupNonManifoldPoints : Found : 0 non-manifold points (out of 96595)
Detected unsplittable baffles : 0

Merge refined boundary faces
----------------------------

Merging 0 sets of faces.

No faces merged ...

Merging all points on surface that
- are used by only two boundary faces and
- make an angle with a cosine of more than 0.707107.

No straight edges simplified and no points removed ...

Doing final balancing
---------------------

Found 0 zoned faces to keep together.
Found 0 separated coupled faces to keep together.
Refined mesh : cells:47282  faces:186288  points:95657
Cells per refinement level:
    0	19064
    1	5142
    2	23076
Writing mesh to time constant
Wrote mesh in = 0.84 s.
Mesh refined in = 5.09 s.

Morphing phase
--------------

Duplicating 0 points on faceZones of type boundary
Snapping to features in 20 iterations ...
Constructing mesh displacer ...
Using mesh parameters 
{
    maxNonOrtho     60;
    maxBoundarySkewness 20;
    maxInternalSkewness 4;
    maxConcave      80;
    minVol          -1;
    minTetQuality   -1;
    minArea         -1;
    minTwist        0.01;
    minDeterminant  0.001;
    minFaceWeight   0.05;
    minVolRatio     0.01;
    minTriangleTwist -1;
    nSmoothScale    4;
    errorReduction  0.75;
    relaxed
    {
        maxNonOrtho     75;
    }
}


Checking initial mesh ...
Checking faces in error :
    non-orthogonality > 60  degrees                        : 22298
    faces with face pyramid volume < -1                    : 0
    faces with face-decomposition tet quality < -1         : 0
    faces with concavity > 80  degrees                     : 0
    faces with skewness > 4   (internal) or 20  (boundary) : 0
    faces with interpolation weights (0..1)  < 0.05        : 0
    faces with volume ratio of neighbour cells < 0.01      : 0
    faces with face twist < 0.01                           : 0
    faces on cells with determinant < 0.001                : 0
Detected 22298 illegal faces (concave, zero area or negative cell pyramid volume)
Checked initial mesh in = 0.09 s


Smoothing patch points ...
Smoothing iteration 0
Found 0 non-manifold point(s).

Scaling iteration 0
Moving mesh using displacement scaling : min:1  max:1
Correcting 2-D mesh motion--> FOAM Warning : 
    From function void Foam::motionSmootherAlgo::modifyMotionPoints(Foam::pointField&) const
    in file motionSmoother/motionSmootherAlgo.C at line 648
    2D mesh-motion probably not correct in parallel
--> FOAM Warning : 
    From function void Foam::twoDPointCorrector::calcAddressing() const
    in file twoDPointCorrector/twoDPointCorrector.C at line 162
    The number of points in the mesh is not equal to twice the number of edges normal to the plane - this may be OK only for wedge geometries.
    Please check the geometry or adjust the orthogonality tolerance.

Number of normal edges: 16174 number of points: 23818
 ...done
Checking faces in error :
    non-orthogonality > 60  degrees                        : 22298
    faces with face pyramid volume < -1                    : 0
    faces with face-decomposition tet quality < -1         : 0
    faces with concavity > 80  degrees                     : 0
    faces with skewness > 4   (internal) or 20  (boundary) : 0
    faces with interpolation weights (0..1)  < 0.05        : 0
    faces with volume ratio of neighbour cells < 0.01      : 0
    faces with face twist < 0.01                           : 0
    faces on cells with determinant < 0.001                : 0
Successfully moved mesh

Smoothing iteration 1
Found 0 non-manifold point(s).

Scaling iteration 0
Moving mesh using displacement scaling : min:1  max:1
Correcting 2-D mesh motion--> FOAM Warning : 
    From function void Foam::motionSmootherAlgo::modifyMotionPoints(Foam::pointField&) const
    in file motionSmoother/motionSmootherAlgo.C at line 648
    2D mesh-motion probably not correct in parallel
 ...done
Checking faces in error :
    non-orthogonality > 60  degrees                        : 22298
    faces with face pyramid volume < -1                    : 0
    faces with face-decomposition tet quality < -1         : 0
    faces with concavity > 80  degrees                     : 0
    faces with skewness > 4   (internal) or 20  (boundary) : 0
    faces with interpolation weights (0..1)  < 0.05        : 0
    faces with volume ratio of neighbour cells < 0.01      : 0
    faces with face twist < 0.01                           : 0
    faces on cells with determinant < 0.001                : 0
Successfully moved mesh

Smoothing iteration 2
Found 0 non-manifold point(s).

Scaling iteration 0
Moving mesh using displacement scaling : min:1  max:1
Correcting 2-D mesh motion--> FOAM Warning : 
    From function void Foam::motionSmootherAlgo::modifyMotionPoints(Foam::pointField&) const
    in file motionSmoother/motionSmootherAlgo.C at line 648
    2D mesh-motion probably not correct in parallel
 ...done
Checking faces in error :
    non-orthogonality > 60  degrees                        : 22299
    faces with face pyramid volume < -1                    : 0
    faces with face-decomposition tet quality < -1         : 0
    faces with concavity > 80  degrees                     : 0
    faces with skewness > 4   (internal) or 20  (boundary) : 0
    faces with interpolation weights (0..1)  < 0.05        : 0
    faces with volume ratio of neighbour cells < 0.01      : 0
    faces with face twist < 0.01                           : 0
    faces on cells with determinant < 0.001                : 0

Scaling iteration 1
Moving mesh using displacement scaling : min:0.75  max:1
Correcting 2-D mesh motion--> FOAM Warning : 
    From function void Foam::motionSmootherAlgo::modifyMotionPoints(Foam::pointField&) const
    in file motionSmoother/motionSmootherAlgo.C at line 648
    2D mesh-motion probably not correct in parallel
 ...done
Checking faces in error :
    non-orthogonality > 60  degrees                        : 22298
    faces with face pyramid volume < -1                    : 0
    faces with face-decomposition tet quality < -1         : 0
    faces with concavity > 80  degrees                     : 0
    faces with skewness > 4   (internal) or 20  (boundary) : 0
    faces with interpolation weights (0..1)  < 0.05        : 0
    faces with volume ratio of neighbour cells < 0.01      : 0
    faces with face twist < 0.01                           : 0
    faces on cells with determinant < 0.001                : 0
Successfully moved mesh

Smoothing iteration 3
Found 0 non-manifold point(s).

Scaling iteration 0
Moving mesh using displacement scaling : min:1  max:1
Correcting 2-D mesh motion--> FOAM Warning : 
    From function void Foam::motionSmootherAlgo::modifyMotionPoints(Foam::pointField&) const
    in file motionSmoother/motionSmootherAlgo.C at line 648
    2D mesh-motion probably not correct in parallel
 ...done
Checking faces in error :
    non-orthogonality > 60  degrees                        : 22298
    faces with face pyramid volume < -1                    : 0
    faces with face-decomposition tet quality < -1         : 0
    faces with concavity > 80  degrees                     : 0
    faces with skewness > 4   (internal) or 20  (boundary) : 0
    faces with interpolation weights (0..1)  < 0.05        : 0
    faces with volume ratio of neighbour cells < 0.01      : 0
    faces with face twist < 0.01                           : 0
    faces on cells with determinant < 0.001                : 0
Successfully moved mesh

Smoothing iteration 4
Found 0 non-manifold point(s).

Scaling iteration 0
Moving mesh using displacement scaling : min:1  max:1
Correcting 2-D mesh motion--> FOAM Warning : 
    From function void Foam::motionSmootherAlgo::modifyMotionPoints(Foam::pointField&) const
    in file motionSmoother/motionSmootherAlgo.C at line 648
    2D mesh-motion probably not correct in parallel
 ...done
Checking faces in error :
    non-orthogonality > 60  degrees                        : 22300
    faces with face pyramid volume < -1                    : 0
    faces with face-decomposition tet quality < -1         : 0
    faces with concavity > 80  degrees                     : 0
    faces with skewness > 4   (internal) or 20  (boundary) : 0
    faces with interpolation weights (0..1)  < 0.05        : 0
    faces with volume ratio of neighbour cells < 0.01      : 0
    faces with face twist < 0.01                           : 0
    faces on cells with determinant < 0.001                : 0

Scaling iteration 1
Moving mesh using displacement scaling : min:0.75  max:1
Correcting 2-D mesh motion--> FOAM Warning : 
    From function void Foam::motionSmootherAlgo::modifyMotionPoints(Foam::pointField&) const
    in file motionSmoother/motionSmootherAlgo.C at line 648
    2D mesh-motion probably not correct in parallel
 ...done
Checking faces in error :
    non-orthogonality > 60  degrees                        : 22298
    faces with face pyramid volume < -1                    : 0
    faces with face-decomposition tet quality < -1         : 0
    faces with concavity > 80  degrees                     : 0
    faces with skewness > 4   (internal) or 20  (boundary) : 0
    faces with interpolation weights (0..1)  < 0.05        : 0
    faces with volume ratio of neighbour cells < 0.01      : 0
    faces with face twist < 0.01                           : 0
    faces on cells with determinant < 0.001                : 0
Successfully moved mesh

Smoothing iteration 5
Found 0 non-manifold point(s).

Scaling iteration 0
Moving mesh using displacement scaling : min:1  max:1
Correcting 2-D mesh motion--> FOAM Warning : 
    From function void Foam::motionSmootherAlgo::modifyMotionPoints(Foam::pointField&) const
    in file motionSmoother/motionSmootherAlgo.C at line 648
    2D mesh-motion probably not correct in parallel
 ...done
Checking faces in error :
    non-orthogonality > 60  degrees                        : 22301
    faces with face pyramid volume < -1                    : 0
    faces with face-decomposition tet quality < -1         : 0
    faces with concavity > 80  degrees                     : 0
    faces with skewness > 4   (internal) or 20  (boundary) : 0
    faces with interpolation weights (0..1)  < 0.05        : 0
    faces with volume ratio of neighbour cells < 0.01      : 0
    faces with face twist < 0.01                           : 0
    faces on cells with determinant < 0.001                : 0

Scaling iteration 1
Moving mesh using displacement scaling : min:0.75  max:1
Correcting 2-D mesh motion--> FOAM Warning : 
    From function void Foam::motionSmootherAlgo::modifyMotionPoints(Foam::pointField&) const
    in file motionSmoother/motionSmootherAlgo.C at line 648
    2D mesh-motion probably not correct in parallel
 ...done
Checking faces in error :
    non-orthogonality > 60  degrees                        : 22298
    faces with face pyramid volume < -1                    : 0
    faces with face-decomposition tet quality < -1         : 0
    faces with concavity > 80  degrees                     : 0
    faces with skewness > 4   (internal) or 20  (boundary) : 0
    faces with interpolation weights (0..1)  < 0.05        : 0
    faces with volume ratio of neighbour cells < 0.01      : 0
    faces with face twist < 0.01                           : 0
    faces on cells with determinant < 0.001                : 0
Successfully moved mesh

Smoothing iteration 6
Found 0 non-manifold point(s).

Scaling iteration 0
Moving mesh using displacement scaling : min:1  max:1
Correcting 2-D mesh motion--> FOAM Warning : 
    From function void Foam::motionSmootherAlgo::modifyMotionPoints(Foam::pointField&) const
    in file motionSmoother/motionSmootherAlgo.C at line 648
    2D mesh-motion probably not correct in parallel
 ...done
Checking faces in error :
    non-orthogonality > 60  degrees                        : 22320
    faces with face pyramid volume < -1                    : 0
    faces with face-decomposition tet quality < -1         : 0
    faces with concavity > 80  degrees                     : 0
    faces with skewness > 4   (internal) or 20  (boundary) : 0
    faces with interpolation weights (0..1)  < 0.05        : 0
    faces with volume ratio of neighbour cells < 0.01      : 0
    faces with face twist < 0.01                           : 0
    faces on cells with determinant < 0.001                : 2562

Scaling iteration 1
Moving mesh using displacement scaling : min:0.75  max:1
Correcting 2-D mesh motion--> FOAM Warning : 
    From function void Foam::motionSmootherAlgo::modifyMotionPoints(Foam::pointField&) const
    in file motionSmoother/motionSmootherAlgo.C at line 648
    2D mesh-motion probably not correct in parallel
 ...done
Checking faces in error :
    non-orthogonality > 60  degrees                        : 22298
    faces with face pyramid volume < -1                    : 0
    faces with face-decomposition tet quality < -1         : 0
    faces with concavity > 80  degrees                     : 0
    faces with skewness > 4   (internal) or 20  (boundary) : 0
    faces with interpolation weights (0..1)  < 0.05        : 0
    faces with volume ratio of neighbour cells < 0.01      : 0
    faces with face twist < 0.01                           : 0
    faces on cells with determinant < 0.001                : 2478

Scaling iteration 2
Moving mesh using displacement scaling : min:0.5625  max:1
Correcting 2-D mesh motion--> FOAM Warning : 
    From function void Foam::motionSmootherAlgo::modifyMotionPoints(Foam::pointField&) const
    in file motionSmoother/motionSmootherAlgo.C at line 648
    2D mesh-motion probably not correct in parallel
 ...done
Checking faces in error :
    non-orthogonality > 60  degrees                        : 22298
    faces with face pyramid volume < -1                    : 0
    faces with face-decomposition tet quality < -1         : 0
    faces with concavity > 80  degrees                     : 0
    faces with skewness > 4   (internal) or 20  (boundary) : 0
    faces with interpolation weights (0..1)  < 0.05        : 0
    faces with volume ratio of neighbour cells < 0.01      : 0
    faces with face twist < 0.01                           : 0
    faces on cells with determinant < 0.001                : 1747

Scaling iteration 3
Moving mesh using displacement scaling : min:0.421875  max:1
Correcting 2-D mesh motion--> FOAM Warning : 
    From function void Foam::motionSmootherAlgo::modifyMotionPoints(Foam::pointField&) const
    in file motionSmoother/motionSmootherAlgo.C at line 648
    2D mesh-motion probably not correct in parallel
 ...done
Checking faces in error :
    non-orthogonality > 60  degrees                        : 22298
    faces with face pyramid volume < -1                    : 0
    faces with face-decomposition tet quality < -1         : 0
    faces with concavity > 80  degrees                     : 0
    faces with skewness > 4   (internal) or 20  (boundary) : 0
    faces with interpolation weights (0..1)  < 0.05        : 0
    faces with volume ratio of neighbour cells < 0.01      : 0
    faces with face twist < 0.01                           : 0
    faces on cells with determinant < 0.001                : 1369

Scaling iteration 4
Moving mesh using displacement scaling : min:0.316406  max:1
Correcting 2-D mesh motion--> FOAM Warning : 
    From function void Foam::motionSmootherAlgo::modifyMotionPoints(Foam::pointField&) const
    in file motionSmoother/motionSmootherAlgo.C at line 648
    2D mesh-motion probably not correct in parallel
 ...done
Checking faces in error :
    non-orthogonality > 60  degrees                        : 22298
    faces with face pyramid volume < -1                    : 0
    faces with face-decomposition tet quality < -1         : 0
    faces with concavity > 80  degrees                     : 0
    faces with skewness > 4   (internal) or 20  (boundary) : 0
    faces with interpolation weights (0..1)  < 0.05        : 0
    faces with volume ratio of neighbour cells < 0.01      : 0
    faces with face twist < 0.01                           : 0
    faces on cells with determinant < 0.001                : 277

Scaling iteration 5
Displacement scaling for error reduction set to 0.
Moving mesh using displacement scaling : min:0.237305  max:1
Correcting 2-D mesh motion--> FOAM Warning : 
    From function void Foam::motionSmootherAlgo::modifyMotionPoints(Foam::pointField&) const
    in file motionSmoother/motionSmootherAlgo.C at line 648
    2D mesh-motion probably not correct in parallel
 ...done
Checking faces in error :
    non-orthogonality > 60  degrees                        : 22298
    faces with face pyramid volume < -1                    : 0
    faces with face-decomposition tet quality < -1         : 0
    faces with concavity > 80  degrees                     : 0
    faces with skewness > 4   (internal) or 20  (boundary) : 0
    faces with interpolation weights (0..1)  < 0.05        : 0
    faces with volume ratio of neighbour cells < 0.01      : 0
    faces with face twist < 0.01                           : 0
    faces on cells with determinant < 0.001                : 0
Successfully moved mesh

Smoothing iteration 7
Found 0 non-manifold point(s).

Scaling iteration 0
Moving mesh using displacement scaling : min:1  max:1
Correcting 2-D mesh motion--> FOAM Warning : 
    From function void Foam::motionSmootherAlgo::modifyMotionPoints(Foam::pointField&) const
    in file motionSmoother/motionSmootherAlgo.C at line 648
    2D mesh-motion probably not correct in parallel
 ...done
Checking faces in error :
    non-orthogonality > 60  degrees                        : 22299
    faces with face pyramid volume < -1                    : 0
    faces with face-decomposition tet quality < -1         : 0
    faces with concavity > 80  degrees                     : 0
    faces with skewness > 4   (internal) or 20  (boundary) : 0
    faces with interpolation weights (0..1)  < 0.05        : 0
    faces with volume ratio of neighbour cells < 0.01      : 0
    faces with face twist < 0.01                           : 0
    faces on cells with determinant < 0.001                : 4184

Scaling iteration 1
Moving mesh using displacement scaling : min:0.75  max:1
Correcting 2-D mesh motion--> FOAM Warning : 
    From function void Foam::motionSmootherAlgo::modifyMotionPoints(Foam::pointField&) const
    in file motionSmoother/motionSmootherAlgo.C at line 648
    2D mesh-motion probably not correct in parallel
 ...done
Checking faces in error :
    non-orthogonality > 60  degrees                        : 22298
    faces with face pyramid volume < -1                    : 0
    faces with face-decomposition tet quality < -1         : 0
    faces with concavity > 80  degrees                     : 0
    faces with skewness > 4   (internal) or 20  (boundary) : 0
    faces with interpolation weights (0..1)  < 0.05        : 0
    faces with volume ratio of neighbour cells < 0.01      : 0
    faces with face twist < 0.01                           : 0
    faces on cells with determinant < 0.001                : 2821

Scaling iteration 2
Moving mesh using displacement scaling : min:0.5625  max:1
Correcting 2-D mesh motion--> FOAM Warning : 
    From function void Foam::motionSmootherAlgo::modifyMotionPoints(Foam::pointField&) const
    in file motionSmoother/motionSmootherAlgo.C at line 648
    2D mesh-motion probably not correct in parallel
 ...done
Checking faces in error :
    non-orthogonality > 60  degrees                        : 22298
    faces with face pyramid volume < -1                    : 0
    faces with face-decomposition tet quality < -1         : 0
    faces with concavity > 80  degrees                     : 0
    faces with skewness > 4   (internal) or 20  (boundary) : 0
    faces with interpolation weights (0..1)  < 0.05        : 0
    faces with volume ratio of neighbour cells < 0.01      : 0
    faces with face twist < 0.01                           : 0
    faces on cells with determinant < 0.001                : 2583

Scaling iteration 3
Moving mesh using displacement scaling : min:0.421875  max:1
Correcting 2-D mesh motion--> FOAM Warning : 
    From function void Foam::motionSmootherAlgo::modifyMotionPoints(Foam::pointField&) const
    in file motionSmoother/motionSmootherAlgo.C at line 648
    2D mesh-motion probably not correct in parallel
 ...done
Checking faces in error :
    non-orthogonality > 60  degrees                        : 22298
    faces with face pyramid volume < -1                    : 0
    faces with face-decomposition tet quality < -1         : 0
    faces with concavity > 80  degrees                     : 0
    faces with skewness > 4   (internal) or 20  (boundary) : 0
    faces with interpolation weights (0..1)  < 0.05        : 0
    faces with volume ratio of neighbour cells < 0.01      : 0
    faces with face twist < 0.01                           : 0
    faces on cells with determinant < 0.001                : 2583

Scaling iteration 4
Moving mesh using displacement scaling : min:0.316406  max:1
Correcting 2-D mesh motion--> FOAM Warning : 
    From function void Foam::motionSmootherAlgo::modifyMotionPoints(Foam::pointField&) const
    in file motionSmoother/motionSmootherAlgo.C at line 648
    2D mesh-motion probably not correct in parallel
 ...done
Checking faces in error :
    non-orthogonality > 60  degrees                        : 22298
    faces with face pyramid volume < -1                    : 0
    faces with face-decomposition tet quality < -1         : 0
    faces with concavity > 80  degrees                     : 0
    faces with skewness > 4   (internal) or 20  (boundary) : 0
    faces with interpolation weights (0..1)  < 0.05        : 0
    faces with volume ratio of neighbour cells < 0.01      : 0
    faces with face twist < 0.01                           : 0
    faces on cells with determinant < 0.001                : 2499

Scaling iteration 5
Displacement scaling for error reduction set to 0.
Moving mesh using displacement scaling : min:0.237305  max:1
Correcting 2-D mesh motion--> FOAM Warning : 
    From function void Foam::motionSmootherAlgo::modifyMotionPoints(Foam::pointField&) const
    in file motionSmoother/motionSmootherAlgo.C at line 648
    2D mesh-motion probably not correct in parallel
 ...done
Checking faces in error :
    non-orthogonality > 60  degrees                        : 22298
    faces with face pyramid volume < -1                    : 0
    faces with face-decomposition tet quality < -1         : 0
    faces with concavity > 80  degrees                     : 0
    faces with skewness > 4   (internal) or 20  (boundary) : 0
    faces with interpolation weights (0..1)  < 0.05        : 0
    faces with volume ratio of neighbour cells < 0.01      : 0
    faces with face twist < 0.01                           : 0
    faces on cells with determinant < 0.001                : 2421

Scaling iteration 6
Moving mesh using displacement scaling : min:0  max:1
Correcting 2-D mesh motion--> FOAM Warning : 
    From function void Foam::motionSmootherAlgo::modifyMotionPoints(Foam::pointField&) const
    in file motionSmoother/motionSmootherAlgo.C at line 648
    2D mesh-motion probably not correct in parallel
 ...done
Checking faces in error :
    non-orthogonality > 60  degrees                        : 22298
    faces with face pyramid volume < -1                    : 0
    faces with face-decomposition tet quality < -1         : 0
    faces with concavity > 80  degrees                     : 0
    faces with skewness > 4   (internal) or 20  (boundary) : 0
    faces with interpolation weights (0..1)  < 0.05        : 0
    faces with volume ratio of neighbour cells < 0.01      : 0
    faces with face twist < 0.01                           : 0
    faces on cells with determinant < 0.001                : 0
Successfully moved mesh

Smoothing iteration 8
Found 0 non-manifold point(s).

Scaling iteration 0
Moving mesh using displacement scaling : min:1  max:1
Correcting 2-D mesh motion--> FOAM Warning : 
    From function void Foam::motionSmootherAlgo::modifyMotionPoints(Foam::pointField&) const
    in file motionSmoother/motionSmootherAlgo.C at line 648
    2D mesh-motion probably not correct in parallel
 ...done
Checking faces in error :
    non-orthogonality > 60  degrees                        : 22298
    faces with face pyramid volume < -1                    : 0
    faces with face-decomposition tet quality < -1         : 0
    faces with concavity > 80  degrees                     : 0
    faces with skewness > 4   (internal) or 20  (boundary) : 0
    faces with interpolation weights (0..1)  < 0.05        : 0
    faces with volume ratio of neighbour cells < 0.01      : 0
    faces with face twist < 0.01                           : 0
    faces on cells with determinant < 0.001                : 4334

Scaling iteration 1
Moving mesh using displacement scaling : min:0.75  max:1
Correcting 2-D mesh motion--> FOAM Warning : 
    From function void Foam::motionSmootherAlgo::modifyMotionPoints(Foam::pointField&) const
    in file motionSmoother/motionSmootherAlgo.C at line 648
    2D mesh-motion probably not correct in parallel
 ...done
Checking faces in error :
    non-orthogonality > 60  degrees                        : 22298
    faces with face pyramid volume < -1                    : 0
    faces with face-decomposition tet quality < -1         : 0
    faces with concavity > 80  degrees                     : 0
    faces with skewness > 4   (internal) or 20  (boundary) : 0
    faces with interpolation weights (0..1)  < 0.05        : 0
    faces with volume ratio of neighbour cells < 0.01      : 0
    faces with face twist < 0.01                           : 0
    faces on cells with determinant < 0.001                : 3623

Scaling iteration 2
Moving mesh using displacement scaling : min:0.5625  max:1
Correcting 2-D mesh motion--> FOAM Warning : 
    From function void Foam::motionSmootherAlgo::modifyMotionPoints(Foam::pointField&) const
    in file motionSmoother/motionSmootherAlgo.C at line 648
    2D mesh-motion probably not correct in parallel
 ...done
Checking faces in error :
    non-orthogonality > 60  degrees                        : 22298
    faces with face pyramid volume < -1                    : 0
    faces with face-decomposition tet quality < -1         : 0
    faces with concavity > 80  degrees                     : 0
    faces with skewness > 4   (internal) or 20  (boundary) : 0
    faces with interpolation weights (0..1)  < 0.05        : 0
    faces with volume ratio of neighbour cells < 0.01      : 0
    faces with face twist < 0.01                           : 0
    faces on cells with determinant < 0.001                : 2814

Scaling iteration 3
Moving mesh using displacement scaling : min:0.421875  max:1
Correcting 2-D mesh motion--> FOAM Warning : 
    From function void Foam::motionSmootherAlgo::modifyMotionPoints(Foam::pointField&) const
    in file motionSmoother/motionSmootherAlgo.C at line 648
    2D mesh-motion probably not correct in parallel
 ...done
Checking faces in error :
    non-orthogonality > 60  degrees                        : 22298
    faces with face pyramid volume < -1                    : 0
    faces with face-decomposition tet quality < -1         : 0
    faces with concavity > 80  degrees                     : 0
    faces with skewness > 4   (internal) or 20  (boundary) : 0
    faces with interpolation weights (0..1)  < 0.05        : 0
    faces with volume ratio of neighbour cells < 0.01      : 0
    faces with face twist < 0.01                           : 0
    faces on cells with determinant < 0.001                : 2583

Scaling iteration 4
Moving mesh using displacement scaling : min:0.316406  max:1
Correcting 2-D mesh motion--> FOAM Warning : 
    From function void Foam::motionSmootherAlgo::modifyMotionPoints(Foam::pointField&) const
    in file motionSmoother/motionSmootherAlgo.C at line 648
    2D mesh-motion probably not correct in parallel
 ...done
Checking faces in error :
    non-orthogonality > 60  degrees                        : 22298
    faces with face pyramid volume < -1                    : 0
    faces with face-decomposition tet quality < -1         : 0
    faces with concavity > 80  degrees                     : 0
    faces with skewness > 4   (internal) or 20  (boundary) : 0
    faces with interpolation weights (0..1)  < 0.05        : 0
    faces with volume ratio of neighbour cells < 0.01      : 0
    faces with face twist < 0.01                           : 0
    faces on cells with determinant < 0.001                : 2499

Scaling iteration 5
Displacement scaling for error reduction set to 0.
Moving mesh using displacement scaling : min:0.237305  max:1
Correcting 2-D mesh motion--> FOAM Warning : 
    From function void Foam::motionSmootherAlgo::modifyMotionPoints(Foam::pointField&) const
    in file motionSmoother/motionSmootherAlgo.C at line 648
    2D mesh-motion probably not correct in parallel
 ...done
Checking faces in error :
    non-orthogonality > 60  degrees                        : 22298
    faces with face pyramid volume < -1                    : 0
    faces with face-decomposition tet quality < -1         : 0
    faces with concavity > 80  degrees                     : 0
    faces with skewness > 4   (internal) or 20  (boundary) : 0
    faces with interpolation weights (0..1)  < 0.05        : 0
    faces with volume ratio of neighbour cells < 0.01      : 0
    faces with face twist < 0.01                           : 0
    faces on cells with determinant < 0.001                : 2457

Scaling iteration 6
Moving mesh using displacement scaling : min:0  max:1
Correcting 2-D mesh motion--> FOAM Warning : 
    From function void Foam::motionSmootherAlgo::modifyMotionPoints(Foam::pointField&) const
    in file motionSmoother/motionSmootherAlgo.C at line 648
    2D mesh-motion probably not correct in parallel
 ...done
Checking faces in error :
    non-orthogonality > 60  degrees                        : 22298
    faces with face pyramid volume < -1                    : 0
    faces with face-decomposition tet quality < -1         : 0
    faces with concavity > 80  degrees                     : 0
    faces with skewness > 4   (internal) or 20  (boundary) : 0
    faces with interpolation weights (0..1)  < 0.05        : 0
    faces with volume ratio of neighbour cells < 0.01      : 0
    faces with face twist < 0.01                           : 0
    faces on cells with determinant < 0.001                : 0
Successfully moved mesh

Smoothing iteration 9
Found 0 non-manifold point(s).

Scaling iteration 0
Moving mesh using displacement scaling : min:1  max:1
Correcting 2-D mesh motion--> FOAM Warning : 
    From function void Foam::motionSmootherAlgo::modifyMotionPoints(Foam::pointField&) const
    in file motionSmoother/motionSmootherAlgo.C at line 648
    2D mesh-motion probably not correct in parallel
 ...done
Checking faces in error :
    non-orthogonality > 60  degrees                        : 22298
    faces with face pyramid volume < -1                    : 0
    faces with face-decomposition tet quality < -1         : 0
    faces with concavity > 80  degrees                     : 0
    faces with skewness > 4   (internal) or 20  (boundary) : 0
    faces with interpolation weights (0..1)  < 0.05        : 0
    faces with volume ratio of neighbour cells < 0.01      : 0
    faces with face twist < 0.01                           : 0
    faces on cells with determinant < 0.001                : 4395

Scaling iteration 1
Moving mesh using displacement scaling : min:0.75  max:1
Correcting 2-D mesh motion--> FOAM Warning : 
    From function void Foam::motionSmootherAlgo::modifyMotionPoints(Foam::pointField&) const
    in file motionSmoother/motionSmootherAlgo.C at line 648
    2D mesh-motion probably not correct in parallel
 ...done
Checking faces in error :
    non-orthogonality > 60  degrees                        : 22298
    faces with face pyramid volume < -1                    : 0
    faces with face-decomposition tet quality < -1         : 0
    faces with concavity > 80  degrees                     : 0
    faces with skewness > 4   (internal) or 20  (boundary) : 0
    faces with interpolation weights (0..1)  < 0.05        : 0
    faces with volume ratio of neighbour cells < 0.01      : 0
    faces with face twist < 0.01                           : 0
    faces on cells with determinant < 0.001                : 4316

Scaling iteration 2
Moving mesh using displacement scaling : min:0.5625  max:1
Correcting 2-D mesh motion--> FOAM Warning : 
    From function void Foam::motionSmootherAlgo::modifyMotionPoints(Foam::pointField&) const
    in file motionSmoother/motionSmootherAlgo.C at line 648
    2D mesh-motion probably not correct in parallel
 ...done
Checking faces in error :
    non-orthogonality > 60  degrees                        : 22298
    faces with face pyramid volume < -1                    : 0
    faces with face-decomposition tet quality < -1         : 0
    faces with concavity > 80  degrees                     : 0
    faces with skewness > 4   (internal) or 20  (boundary) : 0
    faces with interpolation weights (0..1)  < 0.05        : 0
    faces with volume ratio of neighbour cells < 0.01      : 0
    faces with face twist < 0.01                           : 0
    faces on cells with determinant < 0.001                : 3615

Scaling iteration 3
Moving mesh using displacement scaling : min:0.421875  max:1
Correcting 2-D mesh motion--> FOAM Warning : 
    From function void Foam::motionSmootherAlgo::modifyMotionPoints(Foam::pointField&) const
    in file motionSmoother/motionSmootherAlgo.C at line 648
    2D mesh-motion probably not correct in parallel
 ...done
Checking faces in error :
    non-orthogonality > 60  degrees                        : 22298
    faces with face pyramid volume < -1                    : 0
    faces with face-decomposition tet quality < -1         : 0
    faces with concavity > 80  degrees                     : 0
    faces with skewness > 4   (internal) or 20  (boundary) : 0
    faces with interpolation weights (0..1)  < 0.05        : 0
    faces with volume ratio of neighbour cells < 0.01      : 0
    faces with face twist < 0.01                           : 0
    faces on cells with determinant < 0.001                : 3061

Scaling iteration 4
Moving mesh using displacement scaling : min:0.316406  max:1
Correcting 2-D mesh motion--> FOAM Warning : 
    From function void Foam::motionSmootherAlgo::modifyMotionPoints(Foam::pointField&) const
    in file motionSmoother/motionSmootherAlgo.C at line 648
    2D mesh-motion probably not correct in parallel
 ...done
Checking faces in error :
    non-orthogonality > 60  degrees                        : 22298
    faces with face pyramid volume < -1                    : 0
    faces with face-decomposition tet quality < -1         : 0
    faces with concavity > 80  degrees                     : 0
    faces with skewness > 4   (internal) or 20  (boundary) : 0
    faces with interpolation weights (0..1)  < 0.05        : 0
    faces with volume ratio of neighbour cells < 0.01      : 0
    faces with face twist < 0.01                           : 0
    faces on cells with determinant < 0.001                : 2636

Scaling iteration 5
Displacement scaling for error reduction set to 0.
Moving mesh using displacement scaling : min:0.237305  max:1
Correcting 2-D mesh motion--> FOAM Warning : 
    From function void Foam::motionSmootherAlgo::modifyMotionPoints(Foam::pointField&) const
    in file motionSmoother/motionSmootherAlgo.C at line 648
    2D mesh-motion probably not correct in parallel
 ...done
Checking faces in error :
    non-orthogonality > 60  degrees                        : 22298
    faces with face pyramid volume < -1                    : 0
    faces with face-decomposition tet quality < -1         : 0
    faces with concavity > 80  degrees                     : 0
    faces with skewness > 4   (internal) or 20  (boundary) : 0
    faces with interpolation weights (0..1)  < 0.05        : 0
    faces with volume ratio of neighbour cells < 0.01      : 0
    faces with face twist < 0.01                           : 0
    faces on cells with determinant < 0.001                : 2494

Scaling iteration 6
Moving mesh using displacement scaling : min:0  max:1
Correcting 2-D mesh motion--> FOAM Warning : 
    From function void Foam::motionSmootherAlgo::modifyMotionPoints(Foam::pointField&) const
    in file motionSmoother/motionSmootherAlgo.C at line 648
    2D mesh-motion probably not correct in parallel
 ...done
Checking faces in error :
    non-orthogonality > 60  degrees                        : 22298
    faces with face pyramid volume < -1                    : 0
    faces with face-decomposition tet quality < -1         : 0
    faces with concavity > 80  degrees                     : 0
    faces with skewness > 4   (internal) or 20  (boundary) : 0
    faces with interpolation weights (0..1)  < 0.05        : 0
    faces with volume ratio of neighbour cells < 0.01      : 0
    faces with face twist < 0.01                           : 0
    faces on cells with determinant < 0.001                : 0
Successfully moved mesh

Patch points smoothed in = 102.82 s



Morph iteration 0
-----------------
Calculating patchDisplacement as distance to nearest surface point ...
    non-zone points : attract to nearest of all non-zone surfaces
    zone points     : attract to zone surface only

Wanted displacement : average:5.47538e-05 min:5.26047e-10 max:0.000139432
Calculated surface displacement in = 0.07 s


Detecting near surfaces ...
Overriding nearest with intersection of close gaps at 0 out of 21430 points.
Overriding displacement on features :
   implicit features    : true
   explicit features    : false
   multi-patch features : false

Attraction:
    linear   : max:(0.000139421 -1.75942e-06 -1.26921e-10) avg:(9.6246e-06 9.46597e-06 -1.62392e-12)
    feature  : max:(-0.000437767 0.000192368 0) avg:(9.52695e-06 9.61599e-06 0)
Feature analysis : total master points :21390 of which attracted to :
    feature point   : 0
    feature edge    : 285
    nearest surface : 21105
    rest            : 0

--> FOAM Warning : Displacement (7.3654e-07 2.08742e-08 -4.21678e-13) at mesh point 240 coord (0.0199403 -0.0691673 -0.5) points through the surrounding patch faces
Smoothing displacement ...
Iteration 0
Iteration 10
Iteration 20
Iteration 30
Iteration 40
Displacement smoothed in = 0.24 s


Moving mesh ...

Iteration 0
Moving mesh using displacement scaling : min:1  max:1
Correcting 2-D mesh motion--> FOAM Warning : 
    From function void Foam::motionSmootherAlgo::modifyMotionPoints(Foam::pointField&) const
    in file motionSmoother/motionSmootherAlgo.C at line 648
    2D mesh-motion probably not correct in parallel
 ...done
Checking faces in error :
    non-orthogonality > 60  degrees                        : 22298
    faces with face pyramid volume < -1                    : 0
    faces with face-decomposition tet quality < -1         : 0
    faces with concavity > 80  degrees                     : 0
    faces with skewness > 4   (internal) or 20  (boundary) : 0
    faces with interpolation weights (0..1)  < 0.05        : 0
    faces with volume ratio of neighbour cells < 0.01      : 0
    faces with face twist < 0.01                           : 0
    faces on cells with determinant < 0.001                : 11

Iteration 1
Moving mesh using displacement scaling : min:0.75  max:1
Correcting 2-D mesh motion--> FOAM Warning : 
    From function void Foam::motionSmootherAlgo::modifyMotionPoints(Foam::pointField&) const
    in file motionSmoother/motionSmootherAlgo.C at line 648
    2D mesh-motion probably not correct in parallel
 ...done
Checking faces in error :
    non-orthogonality > 60  degrees                        : 22298
    faces with face pyramid volume < -1                    : 0
    faces with face-decomposition tet quality < -1         : 0
    faces with concavity > 80  degrees                     : 0
    faces with skewness > 4   (internal) or 20  (boundary) : 0
    faces with interpolation weights (0..1)  < 0.05        : 0
    faces with volume ratio of neighbour cells < 0.01      : 0
    faces with face twist < 0.01                           : 0
    faces on cells with determinant < 0.001                : 0
Successfully moved mesh
Moved mesh in = 5.43 s



Morph iteration 1
-----------------
Calculating patchDisplacement as distance to nearest surface point ...
    non-zone points : attract to nearest of all non-zone surfaces
    zone points     : attract to zone surface only

Wanted displacement : average:5.23904e-05 min:2.24326e-09 max:0.00013299
Calculated surface displacement in = 0.09 s


Detecting near surfaces ...
Overriding nearest with intersection of close gaps at 0 out of 21430 points.
Overriding displacement on features :
   implicit features    : true
   explicit features    : false
   multi-patch features : false

Attraction:
    linear   : max:(0.000132979 -1.67813e-06 5.07684e-10) avg:(9.21049e-06 9.07569e-06 -1.70494e-12)
    feature  : max:(-0.000430818 0.00019201 0) avg:(9.11265e-06 9.2281e-06 0)
Feature analysis : total master points :21390 of which attracted to :
    feature point   : 0
    feature edge    : 285
    nearest surface : 21105
    rest            : 0

--> FOAM Warning : Displacement (1.56526e-06 4.3645e-08 9.46748e-14) at mesh point 240 coord (0.019941 -0.0691673 -0.5) points through the surrounding patch faces
Smoothing displacement ...
Iteration 0
Iteration 10
Iteration 20
Iteration 30
Iteration 40
Displacement smoothed in = 0.21 s


Moving mesh ...

Iteration 0
Moving mesh using displacement scaling : min:1  max:1
Correcting 2-D mesh motion--> FOAM Warning : 
    From function void Foam::motionSmootherAlgo::modifyMotionPoints(Foam::pointField&) const
    in file motionSmoother/motionSmootherAlgo.C at line 648
    2D mesh-motion probably not correct in parallel
 ...done
Checking faces in error :
    non-orthogonality > 60  degrees                        : 22298
    faces with face pyramid volume < -1                    : 0
    faces with face-decomposition tet quality < -1         : 0
    faces with concavity > 80  degrees                     : 0
    faces with skewness > 4   (internal) or 20  (boundary) : 0
    faces with interpolation weights (0..1)  < 0.05        : 0
    faces with volume ratio of neighbour cells < 0.01      : 0
    faces with face twist < 0.01                           : 0
    faces on cells with determinant < 0.001                : 195

Iteration 1
Moving mesh using displacement scaling : min:0.75  max:1
Correcting 2-D mesh motion--> FOAM Warning : 
    From function void Foam::motionSmootherAlgo::modifyMotionPoints(Foam::pointField&) const
    in file motionSmoother/motionSmootherAlgo.C at line 648
    2D mesh-motion probably not correct in parallel
 ...done
Checking faces in error :
    non-orthogonality > 60  degrees                        : 22298
    faces with face pyramid volume < -1                    : 0
    faces with face-decomposition tet quality < -1         : 0
    faces with concavity > 80  degrees                     : 0
    faces with skewness > 4   (internal) or 20  (boundary) : 0
    faces with interpolation weights (0..1)  < 0.05        : 0
    faces with volume ratio of neighbour cells < 0.01      : 0
    faces with face twist < 0.01                           : 0
    faces on cells with determinant < 0.001                : 168

Iteration 2
Moving mesh using displacement scaling : min:0.5625  max:1
Correcting 2-D mesh motion--> FOAM Warning : 
    From function void Foam::motionSmootherAlgo::modifyMotionPoints(Foam::pointField&) const
    in file motionSmoother/motionSmootherAlgo.C at line 648
    2D mesh-motion probably not correct in parallel
 ...done
Checking faces in error :
    non-orthogonality > 60  degrees                        : 22298
    faces with face pyramid volume < -1                    : 0
    faces with face-decomposition tet quality < -1         : 0
    faces with concavity > 80  degrees                     : 0
    faces with skewness > 4   (internal) or 20  (boundary) : 0
    faces with interpolation weights (0..1)  < 0.05        : 0
    faces with volume ratio of neighbour cells < 0.01      : 0
    faces with face twist < 0.01                           : 0
    faces on cells with determinant < 0.001                : 168

Iteration 3
Moving mesh using displacement scaling : min:0.421875  max:1
Correcting 2-D mesh motion--> FOAM Warning : 
    From function void Foam::motionSmootherAlgo::modifyMotionPoints(Foam::pointField&) const
    in file motionSmoother/motionSmootherAlgo.C at line 648
    2D mesh-motion probably not correct in parallel
 ...done
Checking faces in error :
    non-orthogonality > 60  degrees                        : 22298
    faces with face pyramid volume < -1                    : 0
    faces with face-decomposition tet quality < -1         : 0
    faces with concavity > 80  degrees                     : 0
    faces with skewness > 4   (internal) or 20  (boundary) : 0
    faces with interpolation weights (0..1)  < 0.05        : 0
    faces with volume ratio of neighbour cells < 0.01      : 0
    faces with face twist < 0.01                           : 0
    faces on cells with determinant < 0.001                : 132

Iteration 4
Moving mesh using displacement scaling : min:0.316406  max:1
Correcting 2-D mesh motion--> FOAM Warning : 
    From function void Foam::motionSmootherAlgo::modifyMotionPoints(Foam::pointField&) const
    in file motionSmoother/motionSmootherAlgo.C at line 648
    2D mesh-motion probably not correct in parallel
 ...done
Checking faces in error :
    non-orthogonality > 60  degrees                        : 22298
    faces with face pyramid volume < -1                    : 0
    faces with face-decomposition tet quality < -1         : 0
    faces with concavity > 80  degrees                     : 0
    faces with skewness > 4   (internal) or 20  (boundary) : 0
    faces with interpolation weights (0..1)  < 0.05        : 0
    faces with volume ratio of neighbour cells < 0.01      : 0
    faces with face twist < 0.01                           : 0
    faces on cells with determinant < 0.001                : 91

Iteration 5
Displacement scaling for error reduction set to 0.
Moving mesh using displacement scaling : min:0.237305  max:1
Correcting 2-D mesh motion--> FOAM Warning : 
    From function void Foam::motionSmootherAlgo::modifyMotionPoints(Foam::pointField&) const
    in file motionSmoother/motionSmootherAlgo.C at line 648
    2D mesh-motion probably not correct in parallel
 ...done
Checking faces in error :
    non-orthogonality > 60  degrees                        : 22298
    faces with face pyramid volume < -1                    : 0
    faces with face-decomposition tet quality < -1         : 0
    faces with concavity > 80  degrees                     : 0
    faces with skewness > 4   (internal) or 20  (boundary) : 0
    faces with interpolation weights (0..1)  < 0.05        : 0
    faces with volume ratio of neighbour cells < 0.01      : 0
    faces with face twist < 0.01                           : 0
    faces on cells with determinant < 0.001                : 44

Iteration 6
Moving mesh using displacement scaling : min:0  max:1
Correcting 2-D mesh motion--> FOAM Warning : 
    From function void Foam::motionSmootherAlgo::modifyMotionPoints(Foam::pointField&) const
    in file motionSmoother/motionSmootherAlgo.C at line 648
    2D mesh-motion probably not correct in parallel
 ...done
Checking faces in error :
    non-orthogonality > 60  degrees                        : 22298
    faces with face pyramid volume < -1                    : 0
    faces with face-decomposition tet quality < -1         : 0
    faces with concavity > 80  degrees                     : 0
    faces with skewness > 4   (internal) or 20  (boundary) : 0
    faces with interpolation weights (0..1)  < 0.05        : 0
    faces with volume ratio of neighbour cells < 0.01      : 0
    faces with face twist < 0.01                           : 0
    faces on cells with determinant < 0.001                : 0
Successfully moved mesh
Moved mesh in = 19.12 s



Morph iteration 2
-----------------
Calculating patchDisplacement as distance to nearest surface point ...
    non-zone points : attract to nearest of all non-zone surfaces
    zone points     : attract to zone surface only

Wanted displacement : average:5.20616e-05 min:9.81298e-10 max:0.000129687
Calculated surface displacement in = 0.06 s


Detecting near surfaces ...
Overriding nearest with intersection of close gaps at 0 out of 21430 points.
Overriding displacement on features :
   implicit features    : true
   explicit features    : false
   multi-patch features : false

Attraction:
    linear   : max:(0.000129677 -1.63645e-06 -2.53842e-10) avg:(9.19079e-06 9.06507e-06 -6.94957e-13)
    feature  : max:(-0.000430331 0.000191958 0) avg:(9.09325e-06 9.21751e-06 0)
Feature analysis : total master points :21390 of which attracted to :
    feature point   : 0
    feature edge    : 285
    nearest surface : 21105
    rest            : 0

--> FOAM Warning : Displacement (2.46587e-06 6.80824e-08 -7.59775e-13) at mesh point 240 coord (0.0199414 -0.0691673 -0.5) points through the surrounding patch faces
Smoothing displacement ...
Iteration 0
Iteration 10
Iteration 20
Iteration 30
Iteration 40
Displacement smoothed in = 0.24 s


Moving mesh ...

Iteration 0
Moving mesh using displacement scaling : min:1  max:1
Correcting 2-D mesh motion--> FOAM Warning : 
    From function void Foam::motionSmootherAlgo::modifyMotionPoints(Foam::pointField&) const
    in file motionSmoother/motionSmootherAlgo.C at line 648
    2D mesh-motion probably not correct in parallel
 ...done
Checking faces in error :
    non-orthogonality > 60  degrees                        : 22298
    faces with face pyramid volume < -1                    : 0
    faces with face-decomposition tet quality < -1         : 0
    faces with concavity > 80  degrees                     : 0
    faces with skewness > 4   (internal) or 20  (boundary) : 0
    faces with interpolation weights (0..1)  < 0.05        : 0
    faces with volume ratio of neighbour cells < 0.01      : 0
    faces with face twist < 0.01                           : 0
    faces on cells with determinant < 0.001                : 142

Iteration 1
Moving mesh using displacement scaling : min:0.75  max:1
Correcting 2-D mesh motion--> FOAM Warning : 
    From function void Foam::motionSmootherAlgo::modifyMotionPoints(Foam::pointField&) const
    in file motionSmoother/motionSmootherAlgo.C at line 648
    2D mesh-motion probably not correct in parallel
 ...done
Checking faces in error :
    non-orthogonality > 60  degrees                        : 22298
    faces with face pyramid volume < -1                    : 0
    faces with face-decomposition tet quality < -1         : 0
    faces with concavity > 80  degrees                     : 0
    faces with skewness > 4   (internal) or 20  (boundary) : 0
    faces with interpolation weights (0..1)  < 0.05        : 0
    faces with volume ratio of neighbour cells < 0.01      : 0
    faces with face twist < 0.01                           : 0
    faces on cells with determinant < 0.001                : 111

Iteration 2
Moving mesh using displacement scaling : min:0.5625  max:1
Correcting 2-D mesh motion--> FOAM Warning : 
    From function void Foam::motionSmootherAlgo::modifyMotionPoints(Foam::pointField&) const
    in file motionSmoother/motionSmootherAlgo.C at line 648
    2D mesh-motion probably not correct in parallel
 ...done
Checking faces in error :
    non-orthogonality > 60  degrees                        : 22298
    faces with face pyramid volume < -1                    : 0
    faces with face-decomposition tet quality < -1         : 0
    faces with concavity > 80  degrees                     : 0
    faces with skewness > 4   (internal) or 20  (boundary) : 0
    faces with interpolation weights (0..1)  < 0.05        : 0
    faces with volume ratio of neighbour cells < 0.01      : 0
    faces with face twist < 0.01                           : 0
    faces on cells with determinant < 0.001                : 84

Iteration 3
Moving mesh using displacement scaling : min:0.421875  max:1
Correcting 2-D mesh motion--> FOAM Warning : 
    From function void Foam::motionSmootherAlgo::modifyMotionPoints(Foam::pointField&) const
    in file motionSmoother/motionSmootherAlgo.C at line 648
    2D mesh-motion probably not correct in parallel
 ...done
Checking faces in error :
    non-orthogonality > 60  degrees                        : 22298
    faces with face pyramid volume < -1                    : 0
    faces with face-decomposition tet quality < -1         : 0
    faces with concavity > 80  degrees                     : 0
    faces with skewness > 4   (internal) or 20  (boundary) : 0
    faces with interpolation weights (0..1)  < 0.05        : 0
    faces with volume ratio of neighbour cells < 0.01      : 0
    faces with face twist < 0.01                           : 0
    faces on cells with determinant < 0.001                : 79

Iteration 4
Moving mesh using displacement scaling : min:0.316406  max:1
Correcting 2-D mesh motion--> FOAM Warning : 
    From function void Foam::motionSmootherAlgo::modifyMotionPoints(Foam::pointField&) const
    in file motionSmoother/motionSmootherAlgo.C at line 648
    2D mesh-motion probably not correct in parallel
 ...done
Checking faces in error :
    non-orthogonality > 60  degrees                        : 22298
    faces with face pyramid volume < -1                    : 0
    faces with face-decomposition tet quality < -1         : 0
    faces with concavity > 80  degrees                     : 0
    faces with skewness > 4   (internal) or 20  (boundary) : 0
    faces with interpolation weights (0..1)  < 0.05        : 0
    faces with volume ratio of neighbour cells < 0.01      : 0
    faces with face twist < 0.01                           : 0
    faces on cells with determinant < 0.001                : 64

Iteration 5
Displacement scaling for error reduction set to 0.
Moving mesh using displacement scaling : min:0.237305  max:1
Correcting 2-D mesh motion--> FOAM Warning : 
    From function void Foam::motionSmootherAlgo::modifyMotionPoints(Foam::pointField&) const
    in file motionSmoother/motionSmootherAlgo.C at line 648
    2D mesh-motion probably not correct in parallel
 ...done
Checking faces in error :
    non-orthogonality > 60  degrees                        : 22298
    faces with face pyramid volume < -1                    : 0
    faces with face-decomposition tet quality < -1         : 0
    faces with concavity > 80  degrees                     : 0
    faces with skewness > 4   (internal) or 20  (boundary) : 0
    faces with interpolation weights (0..1)  < 0.05        : 0
    faces with volume ratio of neighbour cells < 0.01      : 0
    faces with face twist < 0.01                           : 0
    faces on cells with determinant < 0.001                : 54

Iteration 6
Moving mesh using displacement scaling : min:0  max:1
Correcting 2-D mesh motion--> FOAM Warning : 
    From function void Foam::motionSmootherAlgo::modifyMotionPoints(Foam::pointField&) const
    in file motionSmoother/motionSmootherAlgo.C at line 648
    2D mesh-motion probably not correct in parallel
 ...done
Checking faces in error :
    non-orthogonality > 60  degrees                        : 22298
    faces with face pyramid volume < -1                    : 0
    faces with face-decomposition tet quality < -1         : 0
    faces with concavity > 80  degrees                     : 0
    faces with skewness > 4   (internal) or 20  (boundary) : 0
    faces with interpolation weights (0..1)  < 0.05        : 0
    faces with volume ratio of neighbour cells < 0.01      : 0
    faces with face twist < 0.01                           : 0
    faces on cells with determinant < 0.001                : 12

Iteration 7
Moving mesh using displacement scaling : min:0  max:1
Correcting 2-D mesh motion--> FOAM Warning : 
    From function void Foam::motionSmootherAlgo::modifyMotionPoints(Foam::pointField&) const
    in file motionSmoother/motionSmootherAlgo.C at line 648
    2D mesh-motion probably not correct in parallel
 ...done
Checking faces in error :
    non-orthogonality > 60  degrees                        : 22298
    faces with face pyramid volume < -1                    : 0
    faces with face-decomposition tet quality < -1         : 0
    faces with concavity > 80  degrees                     : 0
    faces with skewness > 4   (internal) or 20  (boundary) : 0
    faces with interpolation weights (0..1)  < 0.05        : 0
    faces with volume ratio of neighbour cells < 0.01      : 0
    faces with face twist < 0.01                           : 0
    faces on cells with determinant < 0.001                : 0
Successfully moved mesh
Moved mesh in = 22.12 s



Morph iteration 3
-----------------
Calculating patchDisplacement as distance to nearest surface point ...
    non-zone points : attract to nearest of all non-zone surfaces
    zone points     : attract to zone surface only

Wanted displacement : average:5.18394e-05 min:3.19422e-09 max:0.000127625
Calculated surface displacement in = 0.08 s


Detecting near surfaces ...
Overriding nearest with intersection of close gaps at 0 out of 21430 points.
Overriding displacement on features :
   implicit features    : true
   explicit features    : false
   multi-patch features : false

Attraction:
    linear   : max:(0.000127615 -1.61044e-06 -5.07684e-10) avg:(9.17135e-06 9.05625e-06 -1.84618e-12)
    feature  : max:(-0.000430261 0.000191949 0) avg:(9.07385e-06 9.2086e-06 0)
Feature analysis : total master points :21390 of which attracted to :
    feature point   : 0
    feature edge    : 285
    nearest surface : 21105
    rest            : 0

--> FOAM Warning : Displacement (3.45067e-06 9.42207e-08 -2.82971e-12) at mesh point 240 coord (0.0199417 -0.0691673 -0.5) points through the surrounding patch faces
Smoothing displacement ...
Iteration 0
Iteration 10
Iteration 20
Iteration 30
Iteration 40
Displacement smoothed in = 0.23 s


Moving mesh ...

Iteration 0
Moving mesh using displacement scaling : min:1  max:1
Correcting 2-D mesh motion--> FOAM Warning : 
    From function void Foam::motionSmootherAlgo::modifyMotionPoints(Foam::pointField&) const
    in file motionSmoother/motionSmootherAlgo.C at line 648
    2D mesh-motion probably not correct in parallel
 ...done
Checking faces in error :
    non-orthogonality > 60  degrees                        : 22298
    faces with face pyramid volume < -1                    : 0
    faces with face-decomposition tet quality < -1         : 0
    faces with concavity > 80  degrees                     : 0
    faces with skewness > 4   (internal) or 20  (boundary) : 0
    faces with interpolation weights (0..1)  < 0.05        : 0
    faces with volume ratio of neighbour cells < 0.01      : 0
    faces with face twist < 0.01                           : 0
    faces on cells with determinant < 0.001                : 163

Iteration 1
Moving mesh using displacement scaling : min:0.75  max:1
Correcting 2-D mesh motion--> FOAM Warning : 
    From function void Foam::motionSmootherAlgo::modifyMotionPoints(Foam::pointField&) const
    in file motionSmoother/motionSmootherAlgo.C at line 648
    2D mesh-motion probably not correct in parallel
 ...done
Checking faces in error :
    non-orthogonality > 60  degrees                        : 22298
    faces with face pyramid volume < -1                    : 0
    faces with face-decomposition tet quality < -1         : 0
    faces with concavity > 80  degrees                     : 0
    faces with skewness > 4   (internal) or 20  (boundary) : 0
    faces with interpolation weights (0..1)  < 0.05        : 0
    faces with volume ratio of neighbour cells < 0.01      : 0
    faces with face twist < 0.01                           : 0
    faces on cells with determinant < 0.001                : 84

Iteration 2
Moving mesh using displacement scaling : min:0.5625  max:1
Correcting 2-D mesh motion--> FOAM Warning : 
    From function void Foam::motionSmootherAlgo::modifyMotionPoints(Foam::pointField&) const
    in file motionSmoother/motionSmootherAlgo.C at line 648
    2D mesh-motion probably not correct in parallel
 ...done
Checking faces in error :
    non-orthogonality > 60  degrees                        : 22298
    faces with face pyramid volume < -1                    : 0
    faces with face-decomposition tet quality < -1         : 0
    faces with concavity > 80  degrees                     : 0
    faces with skewness > 4   (internal) or 20  (boundary) : 0
    faces with interpolation weights (0..1)  < 0.05        : 0
    faces with volume ratio of neighbour cells < 0.01      : 0
    faces with face twist < 0.01                           : 0
    faces on cells with determinant < 0.001                : 84

Iteration 3
Moving mesh using displacement scaling : min:0.421875  max:1
Correcting 2-D mesh motion--> FOAM Warning : 
    From function void Foam::motionSmootherAlgo::modifyMotionPoints(Foam::pointField&) const
    in file motionSmoother/motionSmootherAlgo.C at line 648
    2D mesh-motion probably not correct in parallel
 ...done
Checking faces in error :
    non-orthogonality > 60  degrees                        : 22298
    faces with face pyramid volume < -1                    : 0
    faces with face-decomposition tet quality < -1         : 0
    faces with concavity > 80  degrees                     : 0
    faces with skewness > 4   (internal) or 20  (boundary) : 0
    faces with interpolation weights (0..1)  < 0.05        : 0
    faces with volume ratio of neighbour cells < 0.01      : 0
    faces with face twist < 0.01                           : 0
    faces on cells with determinant < 0.001                : 84

Iteration 4
Moving mesh using displacement scaling : min:0.316406  max:1
Correcting 2-D mesh motion--> FOAM Warning : 
    From function void Foam::motionSmootherAlgo::modifyMotionPoints(Foam::pointField&) const
    in file motionSmoother/motionSmootherAlgo.C at line 648
    2D mesh-motion probably not correct in parallel
 ...done
Checking faces in error :
    non-orthogonality > 60  degrees                        : 22298
    faces with face pyramid volume < -1                    : 0
    faces with face-decomposition tet quality < -1         : 0
    faces with concavity > 80  degrees                     : 0
    faces with skewness > 4   (internal) or 20  (boundary) : 0
    faces with interpolation weights (0..1)  < 0.05        : 0
    faces with volume ratio of neighbour cells < 0.01      : 0
    faces with face twist < 0.01                           : 0
    faces on cells with determinant < 0.001                : 69

Iteration 5
Displacement scaling for error reduction set to 0.
Moving mesh using displacement scaling : min:0.237305  max:1
Correcting 2-D mesh motion--> FOAM Warning : 
    From function void Foam::motionSmootherAlgo::modifyMotionPoints(Foam::pointField&) const
    in file motionSmoother/motionSmootherAlgo.C at line 648
    2D mesh-motion probably not correct in parallel
 ...done
Checking faces in error :
    non-orthogonality > 60  degrees                        : 22298
    faces with face pyramid volume < -1                    : 0
    faces with face-decomposition tet quality < -1         : 0
    faces with concavity > 80  degrees                     : 0
    faces with skewness > 4   (internal) or 20  (boundary) : 0
    faces with interpolation weights (0..1)  < 0.05        : 0
    faces with volume ratio of neighbour cells < 0.01      : 0
    faces with face twist < 0.01                           : 0
    faces on cells with determinant < 0.001                : 54

Iteration 6
Moving mesh using displacement scaling : min:0  max:1
Correcting 2-D mesh motion--> FOAM Warning : 
    From function void Foam::motionSmootherAlgo::modifyMotionPoints(Foam::pointField&) const
    in file motionSmoother/motionSmootherAlgo.C at line 648
    2D mesh-motion probably not correct in parallel
 ...done
Checking faces in error :
    non-orthogonality > 60  degrees                        : 22298
    faces with face pyramid volume < -1                    : 0
    faces with face-decomposition tet quality < -1         : 0
    faces with concavity > 80  degrees                     : 0
[...]
    faces with face twist < 0.01                           : 0
    faces on cells with determinant < 0.001                : 378
displacementMotionSolver : Iteration 12
Moving mesh using displacement scaling : min:0.0316764  max:1
Correcting 2-D mesh motion--> FOAM Warning : 
    From function void Foam::motionSmootherAlgo::modifyMotionPoints(Foam::pointField&) const
    in file motionSmoother/motionSmootherAlgo.C at line 648
    2D mesh-motion probably not correct in parallel
 ...done
Checking faces in error :
    non-orthogonality > 60  degrees                        : 29174
    faces with face pyramid volume < -1                    : 0
    faces with face-decomposition tet quality < -1         : 0
    faces with concavity > 80  degrees                     : 0
    faces with skewness > 4   (internal) or 20  (boundary) : 0
    faces with interpolation weights (0..1)  < 0.05        : 0
    faces with volume ratio of neighbour cells < 0.01      : 0
    faces with face twist < 0.01                           : 0
    faces on cells with determinant < 0.001                : 284
displacementMotionSolver : Iteration 13
Moving mesh using displacement scaling : min:0.0237573  max:1
Correcting 2-D mesh motion--> FOAM Warning : 
    From function void Foam::motionSmootherAlgo::modifyMotionPoints(Foam::pointField&) const
    in file motionSmoother/motionSmootherAlgo.C at line 648
    2D mesh-motion probably not correct in parallel
 ...done
Checking faces in error :
    non-orthogonality > 60  degrees                        : 27721
    faces with face pyramid volume < -1                    : 0
    faces with face-decomposition tet quality < -1         : 0
    faces with concavity > 80  degrees                     : 0
    faces with skewness > 4   (internal) or 20  (boundary) : 0
    faces with interpolation weights (0..1)  < 0.05        : 0
    faces with volume ratio of neighbour cells < 0.01      : 0
    faces with face twist < 0.01                           : 0
    faces on cells with determinant < 0.001                : 314
displacementMotionSolver : Iteration 14
Moving mesh using displacement scaling : min:0.0178179  max:1
Correcting 2-D mesh motion--> FOAM Warning : 
    From function void Foam::motionSmootherAlgo::modifyMotionPoints(Foam::pointField&) const
    in file motionSmoother/motionSmootherAlgo.C at line 648
    2D mesh-motion probably not correct in parallel
 ...done
Checking faces in error :
    non-orthogonality > 60  degrees                        : 26541
    faces with face pyramid volume < -1                    : 0
    faces with face-decomposition tet quality < -1         : 0
    faces with concavity > 80  degrees                     : 0
    faces with skewness > 4   (internal) or 20  (boundary) : 0
    faces with interpolation weights (0..1)  < 0.05        : 0
    faces with volume ratio of neighbour cells < 0.01      : 0
    faces with face twist < 0.01                           : 0
    faces on cells with determinant < 0.001                : 248
displacementMotionSolver : Iteration 15
Moving mesh using displacement scaling : min:0.0133635  max:1
Correcting 2-D mesh motion--> FOAM Warning : 
    From function void Foam::motionSmootherAlgo::modifyMotionPoints(Foam::pointField&) const
    in file motionSmoother/motionSmootherAlgo.C at line 648
    2D mesh-motion probably not correct in parallel
 ...done
Checking faces in error :
    non-orthogonality > 60  degrees                        : 25657
    faces with face pyramid volume < -1                    : 0
    faces with face-decomposition tet quality < -1         : 0
    faces with concavity > 80  degrees                     : 0
    faces with skewness > 4   (internal) or 20  (boundary) : 0
    faces with interpolation weights (0..1)  < 0.05        : 0
    faces with volume ratio of neighbour cells < 0.01      : 0
    faces with face twist < 0.01                           : 0
    faces on cells with determinant < 0.001                : 213
displacementMotionSolver : Iteration 16
Moving mesh using displacement scaling : min:0.0100226  max:1
Correcting 2-D mesh motion--> FOAM Warning : 
    From function void Foam::motionSmootherAlgo::modifyMotionPoints(Foam::pointField&) const
    in file motionSmoother/motionSmootherAlgo.C at line 648
    2D mesh-motion probably not correct in parallel
 ...done
Checking faces in error :
    non-orthogonality > 60  degrees                        : 24166
    faces with face pyramid volume < -1                    : 0
    faces with face-decomposition tet quality < -1         : 0
    faces with concavity > 80  degrees                     : 0
    faces with skewness > 4   (internal) or 20  (boundary) : 0
    faces with interpolation weights (0..1)  < 0.05        : 0
    faces with volume ratio of neighbour cells < 0.01      : 0
    faces with face twist < 0.01                           : 0
    faces on cells with determinant < 0.001                : 186
displacementMotionSolver : Iteration 17
Moving mesh using displacement scaling : min:0.00751695  max:1
Correcting 2-D mesh motion--> FOAM Warning : 
    From function void Foam::motionSmootherAlgo::modifyMotionPoints(Foam::pointField&) const
    in file motionSmoother/motionSmootherAlgo.C at line 648
    2D mesh-motion probably not correct in parallel
 ...done
Checking faces in error :
    non-orthogonality > 60  degrees                        : 23671
    faces with face pyramid volume < -1                    : 0
    faces with face-decomposition tet quality < -1         : 0
    faces with concavity > 80  degrees                     : 0
    faces with skewness > 4   (internal) or 20  (boundary) : 0
    faces with interpolation weights (0..1)  < 0.05        : 0
    faces with volume ratio of neighbour cells < 0.01      : 0
    faces with face twist < 0.01                           : 0
    faces on cells with determinant < 0.001                : 136
displacementMotionSolver : Iteration 18
Moving mesh using displacement scaling : min:0.00563771  max:1
Correcting 2-D mesh motion--> FOAM Warning : 
    From function void Foam::motionSmootherAlgo::modifyMotionPoints(Foam::pointField&) const
    in file motionSmoother/motionSmootherAlgo.C at line 648
    2D mesh-motion probably not correct in parallel
 ...done
Checking faces in error :
    non-orthogonality > 60  degrees                        : 23271
    faces with face pyramid volume < -1                    : 0
    faces with face-decomposition tet quality < -1         : 0
    faces with concavity > 80  degrees                     : 0
    faces with skewness > 4   (internal) or 20  (boundary) : 0
    faces with interpolation weights (0..1)  < 0.05        : 0
    faces with volume ratio of neighbour cells < 0.01      : 0
    faces with face twist < 0.01                           : 0
    faces on cells with determinant < 0.001                : 69
displacementMotionSolver : Iteration 19
Moving mesh using displacement scaling : min:0.00422828  max:1
Correcting 2-D mesh motion--> FOAM Warning : 
    From function void Foam::motionSmootherAlgo::modifyMotionPoints(Foam::pointField&) const
    in file motionSmoother/motionSmootherAlgo.C at line 648
    2D mesh-motion probably not correct in parallel
 ...done
Checking faces in error :
    non-orthogonality > 60  degrees                        : 22616
    faces with face pyramid volume < -1                    : 0
    faces with face-decomposition tet quality < -1         : 0
    faces with concavity > 80  degrees                     : 0
    faces with skewness > 4   (internal) or 20  (boundary) : 0
    faces with interpolation weights (0..1)  < 0.05        : 0
    faces with volume ratio of neighbour cells < 0.01      : 0
    faces with face twist < 0.01                           : 0
    faces on cells with determinant < 0.001                : 110
displacementMotionSolver : Iteration 20
Moving mesh using displacement scaling : min:0.00317121  max:1
Correcting 2-D mesh motion--> FOAM Warning : 
    From function void Foam::motionSmootherAlgo::modifyMotionPoints(Foam::pointField&) const
    in file motionSmoother/motionSmootherAlgo.C at line 648
    2D mesh-motion probably not correct in parallel
 ...done
Checking faces in error :
    non-orthogonality > 60  degrees                        : 22488
    faces with face pyramid volume < -1                    : 0
    faces with face-decomposition tet quality < -1         : 0
    faces with concavity > 80  degrees                     : 0
    faces with skewness > 4   (internal) or 20  (boundary) : 0
    faces with interpolation weights (0..1)  < 0.05        : 0
    faces with volume ratio of neighbour cells < 0.01      : 0
    faces with face twist < 0.01                           : 0
    faces on cells with determinant < 0.001                : 59
displacementMotionSolver : Iteration 21
Moving mesh using displacement scaling : min:0.00237841  max:1
Correcting 2-D mesh motion--> FOAM Warning : 
    From function void Foam::motionSmootherAlgo::modifyMotionPoints(Foam::pointField&) const
    in file motionSmoother/motionSmootherAlgo.C at line 648
    2D mesh-motion probably not correct in parallel
 ...done
Checking faces in error :
    non-orthogonality > 60  degrees                        : 22384
    faces with face pyramid volume < -1                    : 0
    faces with face-decomposition tet quality < -1         : 0
    faces with concavity > 80  degrees                     : 0
    faces with skewness > 4   (internal) or 20  (boundary) : 0
    faces with interpolation weights (0..1)  < 0.05        : 0
    faces with volume ratio of neighbour cells < 0.01      : 0
    faces with face twist < 0.01                           : 0
    faces on cells with determinant < 0.001                : 30
displacementMotionSolver : Iteration 22
Moving mesh using displacement scaling : min:0.00178381  max:1
Correcting 2-D mesh motion--> FOAM Warning : 
    From function void Foam::motionSmootherAlgo::modifyMotionPoints(Foam::pointField&) const
    in file motionSmoother/motionSmootherAlgo.C at line 648
    2D mesh-motion probably not correct in parallel
 ...done
Checking faces in error :
    non-orthogonality > 60  degrees                        : 22343
    faces with face pyramid volume < -1                    : 0
    faces with face-decomposition tet quality < -1         : 0
    faces with concavity > 80  degrees                     : 0
    faces with skewness > 4   (internal) or 20  (boundary) : 0
    faces with interpolation weights (0..1)  < 0.05        : 0
    faces with volume ratio of neighbour cells < 0.01      : 0
    faces with face twist < 0.01                           : 0
    faces on cells with determinant < 0.001                : 32
displacementMotionSolver : Iteration 23
Moving mesh using displacement scaling : min:0.00133786  max:1
Correcting 2-D mesh motion--> FOAM Warning : 
    From function void Foam::motionSmootherAlgo::modifyMotionPoints(Foam::pointField&) const
    in file motionSmoother/motionSmootherAlgo.C at line 648
    2D mesh-motion probably not correct in parallel
 ...done
Checking faces in error :
    non-orthogonality > 60  degrees                        : 22328
    faces with face pyramid volume < -1                    : 0
    faces with face-decomposition tet quality < -1         : 0
    faces with concavity > 80  degrees                     : 0
    faces with skewness > 4   (internal) or 20  (boundary) : 0
    faces with interpolation weights (0..1)  < 0.05        : 0
    faces with volume ratio of neighbour cells < 0.01      : 0
    faces with face twist < 0.01                           : 0
    faces on cells with determinant < 0.001                : 17
displacementMotionSolver : Iteration 24
Moving mesh using displacement scaling : min:0.00100339  max:1
Correcting 2-D mesh motion--> FOAM Warning : 
    From function void Foam::motionSmootherAlgo::modifyMotionPoints(Foam::pointField&) const
    in file motionSmoother/motionSmootherAlgo.C at line 648
    2D mesh-motion probably not correct in parallel
 ...done
Checking faces in error :
    non-orthogonality > 60  degrees                        : 22323
    faces with face pyramid volume < -1                    : 0
    faces with face-decomposition tet quality < -1         : 0
    faces with concavity > 80  degrees                     : 0
    faces with skewness > 4   (internal) or 20  (boundary) : 0
    faces with interpolation weights (0..1)  < 0.05        : 0
    faces with volume ratio of neighbour cells < 0.01      : 0
    faces with face twist < 0.01                           : 0
    faces on cells with determinant < 0.001                : 15
displacementMotionSolver : Iteration 25
Moving mesh using displacement scaling : min:0.000752543  max:1
Correcting 2-D mesh motion--> FOAM Warning : 
    From function void Foam::motionSmootherAlgo::modifyMotionPoints(Foam::pointField&) const
    in file motionSmoother/motionSmootherAlgo.C at line 648
    2D mesh-motion probably not correct in parallel
 ...done
Checking faces in error :
    non-orthogonality > 60  degrees                        : 22314
    faces with face pyramid volume < -1                    : 0
    faces with face-decomposition tet quality < -1         : 0
    faces with concavity > 80  degrees                     : 0
    faces with skewness > 4   (internal) or 20  (boundary) : 0
    faces with interpolation weights (0..1)  < 0.05        : 0
    faces with volume ratio of neighbour cells < 0.01      : 0
    faces with face twist < 0.01                           : 0
    faces on cells with determinant < 0.001                : 11
displacementMotionSolver : Iteration 26
Moving mesh using displacement scaling : min:0.000564408  max:1
Correcting 2-D mesh motion--> FOAM Warning : 
    From function void Foam::motionSmootherAlgo::modifyMotionPoints(Foam::pointField&) const
    in file motionSmoother/motionSmootherAlgo.C at line 648
    2D mesh-motion probably not correct in parallel
 ...done
Checking faces in error :
    non-orthogonality > 60  degrees                        : 22302
    faces with face pyramid volume < -1                    : 0
    faces with face-decomposition tet quality < -1         : 0
    faces with concavity > 80  degrees                     : 0
    faces with skewness > 4   (internal) or 20  (boundary) : 0
    faces with interpolation weights (0..1)  < 0.05        : 0
    faces with volume ratio of neighbour cells < 0.01      : 0
    faces with face twist < 0.01                           : 0
    faces on cells with determinant < 0.001                : 9
displacementMotionSolver : Iteration 27
Moving mesh using displacement scaling : min:0.000423306  max:1
Correcting 2-D mesh motion--> FOAM Warning : 
    From function void Foam::motionSmootherAlgo::modifyMotionPoints(Foam::pointField&) const
    in file motionSmoother/motionSmootherAlgo.C at line 648
    2D mesh-motion probably not correct in parallel
 ...done
Checking faces in error :
    non-orthogonality > 60  degrees                        : 22300
    faces with face pyramid volume < -1                    : 0
    faces with face-decomposition tet quality < -1         : 0
    faces with concavity > 80  degrees                     : 0
    faces with skewness > 4   (internal) or 20  (boundary) : 0
    faces with interpolation weights (0..1)  < 0.05        : 0
    faces with volume ratio of neighbour cells < 0.01      : 0
    faces with face twist < 0.01                           : 0
    faces on cells with determinant < 0.001                : 5
displacementMotionSolver : Iteration 28
Moving mesh using displacement scaling : min:0.000317479  max:1
Correcting 2-D mesh motion--> FOAM Warning : 
    From function void Foam::motionSmootherAlgo::modifyMotionPoints(Foam::pointField&) const
    in file motionSmoother/motionSmootherAlgo.C at line 648
    2D mesh-motion probably not correct in parallel
 ...done
Checking faces in error :
    non-orthogonality > 60  degrees                        : 22298
    faces with face pyramid volume < -1                    : 0
    faces with face-decomposition tet quality < -1         : 0
    faces with concavity > 80  degrees                     : 0
    faces with skewness > 4   (internal) or 20  (boundary) : 0
    faces with interpolation weights (0..1)  < 0.05        : 0
    faces with volume ratio of neighbour cells < 0.01      : 0
    faces with face twist < 0.01                           : 0
    faces on cells with determinant < 0.001                : 5
displacementMotionSolver : Iteration 29
Moving mesh using displacement scaling : min:0.000238109  max:1
Correcting 2-D mesh motion--> FOAM Warning : 
    From function void Foam::motionSmootherAlgo::modifyMotionPoints(Foam::pointField&) const
    in file motionSmoother/motionSmootherAlgo.C at line 648
    2D mesh-motion probably not correct in parallel
 ...done
Checking faces in error :
    non-orthogonality > 60  degrees                        : 22298
    faces with face pyramid volume < -1                    : 0
    faces with face-decomposition tet quality < -1         : 0
    faces with concavity > 80  degrees                     : 0
    faces with skewness > 4   (internal) or 20  (boundary) : 0
    faces with interpolation weights (0..1)  < 0.05        : 0
    faces with volume ratio of neighbour cells < 0.01      : 0
    faces with face twist < 0.01                           : 0
    faces on cells with determinant < 0.001                : 0
displacementMotionSolver : Successfully moved mesh
displacementMotionSolver : Finished moving mesh ...
truncateDisplacement : Unextruded 0 faces due to non-consecutive vertices being extruded.
truncateDisplacement : Unextruded 0 faces due to stringed edges with inconsistent extrusion.

Setting up information for layer truncation ...
Detected 0 baffles across faceZones of type internal


Checking mesh with layer ...
Checking faces in error :
    non-orthogonality > 60  degrees                        : 22298
    faces with face pyramid volume < -1                    : 0
    faces with face-decomposition tet quality < -1         : 0
    faces with concavity > 80  degrees                     : 0
    faces with skewness > 4   (internal) or 20  (boundary) : 0
    faces with interpolation weights (0..1)  < 0.05        : 0
    faces with volume ratio of neighbour cells < 0.01      : 0
    faces with face twist < 0.01                           : 0
    faces on cells with determinant < 0.001                : 0
Detected 22298 illegal faces (concave, zero area or negative cell pyramid volume)
Extruding 0 out of 14288 faces (0%). Removed extrusion at 0 faces.
Added 0 out of 28576 cells (0%).
Edge intersection testing:
    Number of edges             : 183472
    Number of edges to retest   : 0
    Number of intersected edges : 13056

patch  faces    layers   overall thickness
                         [m]       [%]
-----  -----    ------   ---       ---
twalls 14288    0        0         0       


Doing final balancing
---------------------

Layer mesh : cells:47282  faces:183472  points:92467
Cells per refinement level:
    0	19064
    1	5142
    2	23076
Writing mesh to time constant
Wrote mesh in = 81.41 s.
Layers added in = 81.41 s.
Checking final mesh ...
Checking faces in error :
    non-orthogonality > 60  degrees                        : 22316
    faces with face pyramid volume < -1                    : 0
    faces with face-decomposition tet quality < -1         : 0
    faces with concavity > 80  degrees                     : 0
    faces with skewness > 4   (internal) or 20  (boundary) : 0
    faces with interpolation weights (0..1)  < 0.05        : 0
    faces with volume ratio of neighbour cells < 0.01      : 0
    faces with face twist < 0.01                           : 0
    faces on cells with determinant < 0.001                : 0
Finished meshing with 22316 illegal faces (concave, zero area or negative cell pyramid volume)
Finished meshing in = 591.13 s.
End

Finalising parallel run
